1
    SWAT May 6 2015    VER 2015/Rev 637                                                                  0/ 0/   0      0: 0: 0

    General Input/Output section (file.cio):                                        
    5/31/2016 12:00:00 AM ARCGIS-SWAT interface AV                                  
                                                                                    
         Number of years in run:   29
         Area of watershed:   770315.688 km2
         Random number generator cycles: 0, use default numbers

         Initial random number seed: wet/dry day prob        748932582
         Initial random number seed: radiation              1948832765
         Initial random number seed: precipitation           857034417
         Initial random number seed: 0.5 hr rainfall          67377721
         Initial random number seed: wind speed              366304404
         Initial random number seed: irrigation             1094585182
         Initial random number seed: relative humidity      1767585417
         Initial random number seed: max temperature         608439319
         Initial random number seed: min temperature         592757081

         Precipitation data used in run:
          Multiple gages read for watershed
             Daily rainfall data used

         Temperature data used in run:
          Multiple gages read for watershed

         PET method used: Penman-Monteith

         Rainfall/Runoff/Routing Option:
          Daily rainfall data
          Runoff estimated with curve number method
          Daily stream routing
           Muskingum routing method
           Channel dimensions remain constant
           Subbasin algae/CBOD loadings not modeled
           In-stream nutrient transformations modeled using QUAL2E equations

         Subbasin Input Summary:
          Sub Latitude  Elev(m) #HRUs Ponds Elevbnds Wetlnd
            1    33.52  4851.65     5                   
            2    33.52  4771.96     5                   
            3    33.52  4543.50     5                   
            4    33.52  4464.25     5                   
            5    33.52  4601.38     5                   
            6    33.19  4438.07     5                   
            7    33.19  4058.79     5                   
            8    33.19  4172.69     5                   
            9    33.19  4580.09     5                   
           10    33.19  4075.61     5                   
           11    32.77  4436.56     5                   
           12    32.77  3987.93     5                   
           13    32.77  4363.87     5                   
           14    32.77  3416.38     5                   
           15    32.77  4063.17     5                   
           16    32.72  2587.40     5                   
           17    32.72  2545.85     5                   
           18    32.72  2432.96     5                   
           19    32.72  2035.46     5                   
           20    32.72  1841.51     5                   
           21    32.12  1209.93     5                   
           22    32.12  1820.72     5                   
           23    32.12  1791.53     5                   
           24    32.12  1420.76     5                   
           25    32.12  1585.78     5                   
           26    32.08  1388.83     5                   
           27    32.08  1113.39     5                   
           28    32.08  1532.58     5                   
           29    32.08  1146.62     5                   
           30    32.08  1173.49     7                   
           31    32.05  1250.13     7                   
           32    32.05   960.03     7                   
           33    32.05  1296.83     5                   
           34    32.05  1226.72     7                   
           35    32.05  1003.87     7                   
           36    31.73   854.79     5                   
           37    31.73   925.73     7                   
           38    31.73   948.04     7                   
           39    31.73   952.12     7                   
           40    31.73   916.98     7                   
           41    31.30   824.05     7                   
           42    31.30   858.02     7                   
           43    31.30   759.99     7                   
           44    31.30   735.87     7                   
           45    31.30   698.51     7                   
           46    31.35   833.54     7                   
           47    31.35   805.49     7                   
           48    31.35   956.42     7                   
           49    31.35   692.92     7                   
           50    31.35   667.78     7                   
           51    31.48   847.89     7                   
           52    31.48   764.22     7                   
           53    31.48   389.73     7                   
           54    31.48   881.51     7                   
           55    31.48   625.29     7                   
           56    30.99   427.74     7                   
           57    30.99   493.40     7                   
           58    30.99   604.84     7                   
           59    30.99   810.17     7                   
           60    30.99   876.75     7                   
           61    30.64   863.00     7                   
           62    30.64   743.89     7                   
           63    30.64   415.65     7                   
           64    30.64   820.53     7                   
           65    30.64   779.98     7                   
           66    30.64   459.38     7                   
           67    30.64   699.71     7                   
           68    30.64   615.31     7                   
           69    30.64   941.88     7                   
           70    30.64  1177.27     7                   
           71    29.39   768.49     7                   
           72    29.39   613.66     7                   
           73    29.39  1047.26     7                   
           74    29.39   575.70     7                   
           75    29.39   736.47     7                   
           76    26.22   595.21     7                   
           77    26.22   443.63     7                   
           78    26.22   155.71     7                   
           79    26.22   241.61     7                   
           80    26.22   589.45     7                   
           81    26.13   175.13     7                   
           82    26.13   852.52     7                   
           83    26.13   197.73     7                   
           84    26.13   718.21     7                   
           85    26.13   304.37     7                   
           86    25.91   800.51     7                   
           87    25.91   157.97     7                   
           88    25.91   166.60     7                   
           89    25.91   197.67     7                   
           90    25.91   170.92     7                   
           91    25.33   239.50     7                   
           92    25.33   259.56     7                   
           93    25.33   415.41     7                   
           94    25.33   649.24     7                   
           95    25.33   159.53     7                   
           96    25.58   322.24     7                   
           97    25.58   198.51     7                   
           98    25.58   165.54     7                   
           99    25.58   207.78     7                   
          100    25.58   333.81     7                   
          101    24.71   153.51     7                   
          102    24.71   233.55     7                   
          103    24.71   204.34     7                   
          104    24.71   195.02     7                   
          105    24.71   137.30     7                   
          106    24.51   229.17     7                   
          107    24.51   313.70     7                   
          108    24.51   398.99     7                   
          109    24.51   197.13     7                   
          110    24.51   458.97     7                   
          111    24.25   187.36     7                   
          112    24.25   531.01     7                   
          113    24.25   302.61     7                   
          114    24.25   183.40     7                   
          115    24.25   227.62     7                   
          116    23.34   158.42     7                   
          117    23.34   150.30     7                   
          118    23.34   142.50     7                   
          119    23.34  1030.49     7                   
          120    23.34   134.31     7                   
          121    23.36   387.54     7                   
          122    23.36   226.52     7                   
          123    23.36   148.36     7                   
          124    23.36   144.95     7                   
          125    23.36   168.76     7                   
          126    23.02   142.77     7                   
          127    23.02   134.50     7                   
          128    23.02   162.66     7                   
          129    23.02   193.17     7                   
          130    23.02   130.41     7                   
          131    22.77   242.69     7                   
          132    22.77   171.54     7                   
          133    22.77   124.04     7                   
          134    22.77   157.56     7                   
          135    22.77   224.82     7                   
          136    22.73   140.10     7                   
          137    22.73   121.56     7                   
          138    22.73   192.95     7                   
          139    22.73   118.36     7                   
          140    22.73   144.64     7                   
          141    22.67   183.66     7                   
          142    22.67   201.26     7                   
          143    22.67   364.17     7                   
          144    22.67   109.79     7                   
          145    22.67   261.81     7                   
          146    22.36   168.32     7                   
          147    22.36   216.77     7                   
          148    22.36   991.04     7                   
          149    22.36   133.47     7                   
          150    22.36   189.26     7                   
          151    22.36   124.97     7                   
          152    22.36   928.18     7                   
          153    21.97    85.62     7                   
          154    21.97  1054.52     7                   
          155    21.97   198.83     7                   
          156    21.97   878.07     7                   
          157    21.97   945.45     7                   
          158    21.97   337.08     7                   
          159    21.97   343.50     7                   
          160    21.77   455.58     7                   
          161    21.77    99.34     7                   
          162    21.77   474.54     7                   
          163    21.77   978.46     7                   
          164    21.77   417.26     7                   
          165    21.77   128.63     7                   
          166    21.77   901.60     7                   
          167    21.94   667.30     7                   
          168    21.94    81.32     7                   
          169    21.94   115.45     7                   
          170    21.94    77.88     7                   
          171    21.94    69.62     7                   
          172    21.76    98.82     7                   
          173    21.76    42.15     7                   
          174    21.76   113.32     7                   
          175    21.76    97.47     7                   
          176    21.76    70.46     7                   
          177    21.76    85.48     7                   
          178    21.76    58.46     7                   
          179    21.66    11.84     7                   
          180    21.66    82.62     7                   
          181    21.66   154.22     7                   
          182    21.66    39.82     7                   
          183    21.66    70.76     7                   
          184    21.66   155.00     7                   
          185    21.66   265.16     7                   
          186    21.89   305.51     7                   
          187    21.89   117.28     7                   
          188    21.89    -4.18     7                   
          189    21.89    23.06     7                   
          190    21.89    34.50     7                   
          191    21.47   378.02     7                   
          192    21.47   198.98     7                   
          193    21.47    88.88     7                   
          194    21.47    69.86     7                   
          195    21.47   106.13     7                   
          196    21.47    11.65     7                   
          197    21.47    97.30     7                   
          198    21.38    53.27     7                   
          199    21.38    -1.31     7                   
          200    21.38    -1.85     7                   
          201    21.38    59.62     7                   
          202    21.38    16.57     7                   
          203    21.38   258.03     7                   
          204    21.38    22.69     7                   
          205    21.40   192.60     7                   
          206    21.40   642.92     7                   
          207    21.40    68.89     7                   
          208    21.40   126.58     7                   
          209    21.40    36.09     7                   
          210    21.40   835.98     7                   
          211    21.40    18.15     7                   
          212    21.07    39.34     7                   
          213    21.07   120.08     7                   
          214    21.07    11.27     7                   
          215    21.07    14.82     7                   
          216    21.07    59.92     7                   
          217    21.07     7.48     7                   
          218    21.07     1.62     7                   
          219    21.27    -6.44     7                   
          220    21.27    96.08     7                   
          221    21.27    19.11     7                   
          222    21.27    27.19     7                   
          223    21.27    -2.85     7                   
          224    21.27     5.62     7                   
          225    21.27     4.92     7                   
          226    20.94    -0.92     7                   
          227    20.94   119.96     9                   
          228    20.94     6.08     7                   
          229    20.94    -5.18     7                   
          230    20.94    -2.24     7                   
          231    20.94     3.79     7                   
          232    20.94    39.93     7                   
          233    21.07     0.48     9                   
          234    21.07    -8.77     9                   
          235    21.07     3.60     9                   
          236    21.07     8.20     8                   
          237    21.07    -3.94     9                   
          238    21.07   164.34     7                   
          239    21.07   242.62     7                   
          240    20.74   687.06     7                   
          241    20.74   351.93     7                   
          242    20.74   209.45     7                   
          243    20.74   171.71     7                   
          244    20.74   153.72     7                   
          245    20.74   182.03     7                   
          246    20.74   135.27     7                   
          247    20.83   123.46     7                   
          248    20.83   155.40     7                   
          249    20.83   135.73     7                   
          250    20.83   127.02     7                   
          251    20.83     7.29     7                   
          252    20.83    50.57     7                   
          253    20.83  2525.04     5                   
          254    20.69   815.70     5                   
          255    20.69  1201.68     5                   
          256    20.69  2822.65     5                   
          257    20.69  2896.20     5                   
          258    20.69  1789.37     5                   
          259    20.69   197.89     7                   
          260    20.69    84.68     7                   
          261    20.60   143.70     7                   
          262    20.60   591.11     7                   
          263    20.60   630.70     7                   
          264    20.60   406.69     7                   
          265    20.60   253.26     7                   
          266    20.60   300.50     7                   
          267    20.60   812.35     7                   
          268    20.92   212.97     7                   
          269    20.92   781.49     7                   
          270    20.92   699.55     7                   
          271    20.92   292.03     7                   
          272    20.92   666.23     7                   
          273    20.92   269.51     7                   
          274    20.92   661.10     7                   
          275    20.58   397.36     7                   
          276    20.58   342.85     7                   
          277    20.58   865.02     7                   
          278    20.58   874.83     7                   
          279    20.58   875.62     7                   
          280    20.58  1500.05     5                   
          281    20.58   755.32     5                   
          282    20.43  1980.64     5                   
          283    20.43  1589.95     5                   
          284    20.43   100.94     7                   
          285    20.43   290.33     7                   
          286    20.43   247.47     7                   
          287    20.43   112.58     7                   
          288    20.43    -1.97     9                   
          289    20.57    26.72     7                   

         HRU Input Summary Table 1:
          Sub   HRU   Area(ha) Slope SlpLgth(m) Ovrlnd_N CondII_CN TimeConc(hr) ESCO EPCO
            1      1       0.00 0.170      18.29    0.140     71.00        0.166 0.95 1.00
            1      2       0.00 0.171      18.29    0.140     71.00        0.166 0.95 1.00
            1      3       0.00 0.171      18.29    0.140     71.00        0.166 0.95 1.00
            1      4       0.00 0.171      18.29    0.140     71.00        0.166 0.95 1.00
            1      5  264402.16 0.170      18.29    0.100     71.00        1.009 0.95 1.00
            2      6       0.00 0.131      24.39    0.140     71.00        0.214 0.95 1.00
            2      7       0.00 0.131      24.39    0.140     71.00        0.214 0.95 1.00
            2      8       0.00 0.130      24.39    0.140     71.00        0.214 0.95 1.00
            2      9       0.00 0.130      24.39    0.140     71.00        0.214 0.95 1.00
            2     10  200617.44 0.130      24.39    0.100     71.00        0.415 0.95 1.00
            3     11       0.00 0.322       9.15    0.140     71.00        0.091 0.95 1.00
            3     12       0.00 0.322       9.15    0.140     71.00        0.091 0.95 1.00
            3     13    1613.30 0.323       9.15    0.140     71.00        0.167 0.95 1.00
            3     14   10085.26 0.322       9.15    0.140     71.00        0.471 0.95 1.00
            3     15 1463590.50 0.323       9.15    0.100     71.00       29.681 0.95 1.00
            4     16       0.00 0.329       9.15    0.140     71.00        0.090 0.95 1.00
            4     17       0.00 0.331       9.15    0.140     71.00        0.090 0.95 1.00
            4     18     231.30 0.330       9.15    0.140     71.00        0.103 0.95 1.00
            4     19    3137.41 0.329       9.15    0.140     71.00        0.220 0.95 1.00
            4     20  674856.19 0.330       9.15    0.100     71.00       14.389 0.95 1.00
            5     21       0.00 0.305       9.15    0.140     71.00        0.092 0.95 1.00
            5     22       0.00 0.306       9.15    0.140     71.00        0.092 0.95 1.00
            5     23    2602.83 0.306       9.15    0.140     71.00        0.191 0.95 1.00
            5     24   14696.27 0.304       9.15    0.140     71.00        0.541 0.95 1.00
            5     25 1696362.00 0.305       9.15    0.100     71.00       28.679 0.95 1.00
            6     26       0.00 0.360       9.15    0.140     71.00        0.088 0.95 1.00
            6     27       0.00 0.359       9.15    0.140     71.00        0.088 0.95 1.00
            6     28    5817.95 0.359       9.15    0.140     71.00        0.179 0.95 1.00
            6     29   18207.92 0.359       9.15    0.140     71.00        0.337 0.95 1.00
            6     30  579638.56 0.359       9.15    0.100     71.00        5.216 0.95 1.00
            7     31       0.00 0.380       9.15    0.140     71.00        0.086 0.95 1.00
            7     32       0.00 0.374       9.15    0.140     71.00        0.087 0.95 1.00
            7     33      40.33 0.379       9.15    0.140     71.00        0.093 0.95 1.00
            7     34     290.93 0.374       9.15    0.140     71.00        0.127 0.95 1.00
            7     35   14443.73 0.376       9.15    0.100     71.00        1.297 0.95 1.00
            8     36       0.00 0.383       9.15    0.140     71.00        0.086 0.95 1.00
            8     37       0.00 0.388       9.15    0.140     71.00        0.086 0.95 1.00
            8     38     402.41 0.388       9.15    0.140     71.00        0.130 0.95 1.00
            8     39     583.37 0.389       9.15    0.140     71.00        0.147 0.95 1.00
            8     40  134933.36 0.387       9.15    0.100     71.00        7.282 0.95 1.00
            9     41       0.00 0.358       9.15    0.140     71.00        0.088 0.95 1.00
            9     42       0.00 0.359       9.15    0.140     71.00        0.088 0.95 1.00
            9     43    1080.43 0.359       9.15    0.140     71.00        0.135 0.95 1.00
            9     44    3749.17 0.358       9.15    0.140     71.00        0.228 0.95 1.00
            9     45  730434.56 0.359       9.15    0.100     71.00       14.188 0.95 1.00
           10     46       0.00 0.427       9.15    0.140     71.00        0.083 0.95 1.00
           10     47       0.00 0.420       9.15    0.140     71.00        0.084 0.95 1.00
           10     48    2384.22 0.423       9.15    0.140     71.00        0.341 0.95 1.00
           10     49    9213.72 0.422       9.15    0.140     71.00        0.925 0.95 1.00
           10     50   79645.98 0.423       9.15    0.100     71.00        5.621 0.95 1.00
           11     51       0.00 0.368       9.15    0.140     71.00        0.087 0.95 1.00
           11     52       0.00 0.371       9.15    0.140     71.00        0.087 0.95 1.00
           11     53    2028.85 0.371       9.15    0.140     71.00        0.106 0.95 1.00
           11     54    4256.12 0.369       9.15    0.140     71.00        0.123 0.95 1.00
           11     55  243175.02 0.371       9.15    0.100     71.00        1.308 0.95 1.00
           12     56       0.00 0.423       9.15    0.140     71.00        0.083 0.95 1.00
           12     57       0.00 0.417       9.15    0.140     71.00        0.084 0.95 1.00
           12     58    2231.35 0.423       9.15    0.140     71.00        0.344 0.95 1.00
           12     59    5207.43 0.416       9.15    0.140     71.00        0.631 0.95 1.00
           12     60  118837.62 0.418       9.15    0.100     71.00        8.519 0.95 1.00
           13     61       0.00 0.289       9.15    0.140     71.00        0.094 0.95 1.00
           13     62       0.00 0.289       9.15    0.140     71.00        0.094 0.95 1.00
           13     63    6812.98 0.287       9.15    0.140     71.00        0.167 0.95 1.00
           13     64   24517.74 0.289       9.15    0.140     71.00        0.319 0.95 1.00
           13     65  618334.69 0.288       9.15    0.100     71.00        3.872 0.95 1.00
           14     66       0.00 0.438       9.15    0.140     71.00        0.083 0.95 1.00
           14     67       0.00 0.398       9.15    0.140     71.00        0.085 0.95 1.00
           14     68      80.62 0.385       9.15    0.140     71.00        0.204 0.95 1.00
           14     69      46.23 0.417       9.15    0.140     71.00        0.157 0.95 1.00
           14     70    1191.81 0.432       9.15    0.100     71.00        1.318 0.95 1.00
           15     71       1.82 0.471       9.15    0.140     71.00        0.081 0.95 1.00
           15     72      11.18 0.472       9.15    0.140     71.00        0.082 0.95 1.00
           15     73    2143.49 0.470       9.15    0.140     71.00        0.200 0.95 1.00
           15     74   33576.89 0.472       9.15    0.140     71.00        1.406 0.95 1.00
           15     75 1070151.62 0.472       9.15    0.100     71.00       27.473 0.95 1.00
           16     76    5561.71 0.287       9.15    0.140     71.00        0.228 0.95 1.00
           16     77    1119.87 0.287       9.15    0.140     71.00        0.127 0.95 1.00
           16     78       0.00 0.287       9.15    0.140     71.00        0.094 0.95 1.00
           16     79   27498.02 0.289       9.15    0.140     71.00        0.636 0.95 1.00
           16     80  405329.09 0.288       9.15    0.100     71.00        5.791 0.95 1.00
           17     81    1237.57 0.346       9.15    0.140     71.00        0.118 0.95 1.00
           17     82     190.95 0.344       9.15    0.140     71.00        0.094 0.95 1.00
           17     83       0.00 0.345       9.15    0.140     71.00        0.089 0.95 1.00
           17     84   11952.64 0.344       9.15    0.140     71.00        0.299 0.95 1.00
           17     85  258573.86 0.345       9.15    0.100     71.00        3.171 0.95 1.00
           18     86   17011.46 0.237      15.24    0.140     71.00        0.219 0.95 1.00
           18     87       0.00 0.234      15.24    0.140     71.00        0.135 0.95 1.00
           18     88       0.00 0.232      15.24    0.140     71.00        0.136 0.95 1.00
           18     89   25561.30 0.234      15.24    0.140     71.00        0.255 0.95 1.00
           18     90  225722.55 0.226      15.24    0.100     71.00        0.916 0.95 1.00
           19     91    1772.37 0.357       9.15    0.140     71.00        0.188 0.95 1.00
           19     92     583.03 0.356       9.15    0.140     71.00        0.126 0.95 1.00
           19     93       0.00 0.355       9.15    0.140     71.00        0.088 0.95 1.00
           19     94   50103.04 0.355       9.15    0.140     71.00        1.960 0.95 1.00
           19     95  440966.69 0.355       9.15    0.100     71.00       12.626 0.95 1.00
           20     96       0.00 0.697       9.15    0.140     71.00        0.072 0.95 1.00
           20     97       3.35 0.644       9.15    0.140     71.00        0.078 0.95 1.00
           20     98       0.00 0.681       9.15    0.140     71.00        0.072 0.95 1.00
           20     99      25.88 0.681       9.15    0.140     71.00        0.098 0.95 1.00
           20    100    1051.53 0.653       9.15    0.100     71.00        0.721 0.95 1.00
           21    101       0.00 0.672       9.15    0.140     71.00        0.073 0.95 1.00
           21    102       0.00 0.536       9.15    0.140     71.00        0.078 0.95 1.00
           21    103       0.00 0.518       9.15    0.140     71.00        0.079 0.95 1.00
           21    104      16.95 0.592       9.15    0.140     71.00        0.128 0.95 1.00
           21    105     113.06 0.573       9.15    0.100     71.00        0.339 0.95 1.00
           22    106   16976.24 0.303       9.15    0.140     71.00        0.424 0.95 1.00
           22    107     318.62 0.304       9.15    0.140     71.00        0.102 0.95 1.00
           22    108       0.00 0.302       9.15    0.140     71.00        0.092 0.95 1.00
           22    109   63809.18 0.305       9.15    0.140     71.00        1.149 0.95 1.00
           22    110  240339.16 0.304       9.15    0.100     71.00        3.448 0.95 1.00
           23    111    1509.31 0.359       9.15    0.140     71.00        0.207 0.95 1.00
           23    112      42.13 0.357       9.15    0.140     71.00        0.093 0.95 1.00
           23    113       0.00 0.355       9.15    0.140     71.00        0.088 0.95 1.00
           23    114   39949.41 0.353       9.15    0.140     71.00        2.190 0.95 1.00
           23    115  203561.84 0.355       9.15    0.100     71.00        8.810 0.95 1.00
           24    116   20950.33 0.280       9.15    0.140     71.00        0.580 0.95 1.00
           24    117       5.14 0.278       9.15    0.140     71.00        0.095 0.95 1.00
           24    118       0.00 0.278       9.15    0.140     71.00        0.095 0.95 1.00
           24    119   70276.75 0.277       9.15    0.140     71.00        1.494 0.95 1.00
           24    120  787445.62 0.279       9.15    0.100     71.00       11.671 0.95 1.00
           25    121   15247.01 0.294       9.15    0.140     71.00        0.402 0.95 1.00
           25    122    7030.15 0.292       9.15    0.140     71.00        0.250 0.95 1.00
           25    123       0.00 0.293       9.15    0.140     71.00        0.093 0.95 1.00
           25    124  100959.77 0.297       9.15    0.140     71.00        1.706 0.95 1.00
           25    125  456030.19 0.294       9.15    0.100     71.00        6.111 0.95 1.00
           26    126     825.45 0.291       9.15    0.140     71.00        0.153 0.95 1.00
           26    127    4459.87 0.291       9.15    0.140     71.00        0.356 0.95 1.00
           26    128       0.00 0.292       9.15    0.140     71.00        0.093 0.95 1.00
           26    129   29059.07 0.291       9.15    0.140     71.00        1.447 0.95 1.00
           26    130  201842.34 0.292       9.15    0.100     71.00        7.457 0.95 1.00
           27    131       0.00 0.321       9.15    0.140     71.00        0.091 0.95 1.00
           27    132     440.59 0.314       9.15    0.140     71.00        0.300 0.95 1.00
           27    133       0.00 0.313       9.15    0.140     71.00        0.091 0.95 1.00
           27    134    3209.30 0.316       9.15    0.140     71.00        1.279 0.95 1.00
           27    135   28540.95 0.317       9.15    0.100     71.00        8.115 0.95 1.00
           28    136    3984.20 0.292       9.15    0.140     71.00        0.128 0.95 1.00
           28    137    5393.46 0.294       9.15    0.140     71.00        0.138 0.95 1.00
           28    138       0.00 0.293       9.15    0.140     71.00        0.093 0.95 1.00
           28    139   23359.17 0.292       9.15    0.140     71.00        0.255 0.95 1.00
           28    140  178264.48 0.293       9.15    0.100     71.00        1.032 0.95 1.00
           29    141       0.00 0.304       9.15    0.140     71.00        0.092 0.95 1.00
           29    142       0.00 0.315       9.15    0.140     71.00        0.091 0.95 1.00
           29    143       0.00 0.310       9.15    0.140     71.00        0.092 0.95 1.00
           29    144    1158.01 0.316       9.15    0.140     71.00        0.273 0.95 1.00
           29    145   11306.02 0.312       9.15    0.100     71.00        1.410 0.95 1.00
           30    146   14170.66 0.253       9.15    0.140     71.00        0.477 0.95 1.00
           30    147     156.03 0.252       9.15    0.140     71.00        0.105 0.95 1.00
           30    148       0.00 0.251       9.15    0.140     71.00        0.098 0.95 1.00
           30    149       0.00 0.126      24.39    0.140     71.00        0.216 0.95 1.00
           30    150       2.87 0.251       9.15    0.140     71.00        0.098 0.95 1.00
           30    151   24658.28 0.251       9.15    0.140     71.00        0.714 0.95 1.00
           30    152  729060.62 0.253       9.15    0.100     71.00       12.018 0.95 1.00
           31    153   22751.64 0.294       9.15    0.140     71.00        0.701 0.95 1.00
           31    154    5735.79 0.293       9.15    0.140     71.00        0.275 0.95 1.00
           31    155       0.00 0.113      60.98    0.140     71.00        0.387 0.95 1.00
           31    156       0.00 0.148      24.39    0.140     71.00        0.206 0.95 1.00
           31    157     134.60 0.293       9.15    0.140     71.00        0.100 0.95 1.00
           31    158   39132.28 0.294       9.15    0.140     71.00        1.071 0.95 1.00
           31    159  530263.19 0.294       9.15    0.100     71.00        9.641 0.95 1.00
           32    160       0.00 0.278       9.15    0.140     71.00        0.095 0.95 1.00
           32    161    6016.49 0.278       9.15    0.140     71.00        0.290 0.95 1.00
           32    162    3158.90 0.279       9.15    0.140     71.00        0.206 0.95 1.00
           32    163       0.00 0.278       9.15    0.140     71.00        0.095 0.95 1.00
           32    164    1457.65 0.278       9.15    0.140     71.00        0.151 0.95 1.00
           32    165    6599.89 0.278       9.15    0.140     71.00        0.306 0.95 1.00
           32    166 1168298.00 0.278       9.15    0.100     71.00       19.702 0.95 1.00
           33    167   24759.61 0.154      24.39    0.140     71.00        0.335 0.95 1.00
           33    168      13.35 0.154      24.39    0.140     71.00        0.204 0.95 1.00
           33    169       0.00 0.156      24.39    0.140     71.00        0.203 0.95 1.00
           33    170   32598.37 0.157      24.39    0.140     71.00        0.370 0.95 1.00
           33    171  150705.23 0.155      24.39    0.100     71.00        0.804 0.95 1.00
           34    172    2774.24 0.226      15.24    0.140     71.00        0.268 0.95 1.00
           34    173   20211.50 0.226      15.24    0.140     71.00        0.883 0.95 1.00
           34    174    4161.36 0.227      15.24    0.140     71.00        0.324 0.95 1.00
           34    175       0.00 0.226      15.24    0.140     71.00        0.137 0.95 1.00
           34    176    1573.72 0.225      15.24    0.140     71.00        0.217 0.95 1.00
           34    177   49369.03 0.226      15.24    0.140     71.00        1.766 0.95 1.00
           34    178  699195.31 0.226      15.24    0.100     71.00       16.679 0.95 1.00
           35    179    9892.13 0.225      15.24    0.140     71.00        0.449 0.95 1.00
           35    180    1554.63 0.226      15.24    0.140     71.00        0.199 0.95 1.00
           35    181       0.00 0.083      60.98    0.140     71.00        0.425 0.95 1.00
           35    182       0.00 0.128      24.39    0.140     71.00        0.215 0.95 1.00
           35    183     357.94 0.226      15.24    0.140     71.00        0.154 0.95 1.00
           35    184   14543.30 0.224      15.24    0.140     71.00        0.575 0.95 1.00
           35    185  214784.38 0.226      15.24    0.100     71.00        4.724 0.95 1.00
           36    186    2565.29 0.223      15.24    0.140     71.00        0.463 0.95 1.00
           36    187       0.46 0.227      15.24    0.140     71.00        0.137 0.95 1.00
           36    188       0.00 0.222      15.24    0.140     71.00        0.138 0.95 1.00
           36    189    2250.39 0.227      15.24    0.140     71.00        0.427 0.95 1.00
           36    190   37779.81 0.227      15.24    0.100     71.00        3.538 0.95 1.00
           37    191   11621.94 0.235      15.24    0.140     71.00        0.395 0.95 1.00
           37    192    1810.58 0.235      15.24    0.140     71.00        0.186 0.95 1.00
           37    193       0.00 0.150      24.39    0.140     71.00        0.205 0.95 1.00
           37    194       0.00 0.187      18.29    0.140     71.00        0.162 0.95 1.00
           37    195    1295.13 0.236      15.24    0.140     71.00        0.173 0.95 1.00
           37    196   15483.91 0.235      15.24    0.140     71.00        0.469 0.95 1.00
           37    197  426389.31 0.236      15.24    0.100     71.00        6.175 0.95 1.00
           38    198       0.00 0.295       9.15    0.140     71.00        0.093 0.95 1.00
           38    199    3136.82 0.297       9.15    0.140     71.00        0.438 0.95 1.00
           38    200     549.13 0.293       9.15    0.140     71.00        0.168 0.95 1.00
           38    201       0.00 0.292       9.15    0.140     71.00        0.093 0.95 1.00
           38    202     551.80 0.293       9.15    0.140     71.00        0.169 0.95 1.00
           38    203    4333.71 0.294       9.15    0.140     71.00        0.551 0.95 1.00
           38    204  121595.45 0.293       9.15    0.100     71.00        8.536 0.95 1.00
           39    205     692.32 0.269       9.15    0.140     71.00        0.209 0.95 1.00
           39    206    3329.01 0.268       9.15    0.140     71.00        0.545 0.95 1.00
           39    207    1038.48 0.272       9.15    0.140     71.00        0.258 0.95 1.00
           39    208       0.00 0.270       9.15    0.140     71.00        0.096 0.95 1.00
           39    209    1162.88 0.270       9.15    0.140     71.00        0.275 0.95 1.00
           39    210   10667.27 0.269       9.15    0.140     71.00        1.341 0.95 1.00
           39    211  128580.83 0.271       9.15    0.100     71.00       11.076 0.95 1.00
           40    212     685.09 0.248      15.24    0.140     71.00        0.170 0.95 1.00
           40    213    4194.23 0.247      15.24    0.140     71.00        0.313 0.95 1.00
           40    214    1027.63 0.247      15.24    0.140     71.00        0.186 0.95 1.00
           40    215       0.00 0.248      15.24    0.140     71.00        0.133 0.95 1.00
           40    216     752.10 0.249      15.24    0.140     71.00        0.173 0.95 1.00
           40    217   10359.90 0.249      15.24    0.140     71.00        0.529 0.95 1.00
           40    218  407817.34 0.248      15.24    0.100     71.00        9.949 0.95 1.00
           41    219       0.00 0.255       9.15    0.140     71.00        0.097 0.95 1.00
           41    220       0.00 0.257       9.15    0.140     71.00        0.097 0.95 1.00
           41    221       0.00 0.258       9.15    0.140     71.00        0.097 0.95 1.00
           41    222       0.00 0.255       9.15    0.140     71.00        0.097 0.95 1.00
           41    223       0.00 0.256       9.15    0.140     71.00        0.097 0.95 1.00
           41    224       0.00 0.257       9.15    0.140     71.00        0.097 0.95 1.00
           41    225  208227.81 0.256       9.15    0.100     71.00        0.929 0.95 1.00
           42    226       0.00 0.275       9.15    0.140     71.00        0.095 0.95 1.00
           42    227    2490.20 0.273       9.15    0.140     71.00        0.210 0.95 1.00
           42    228    2978.58 0.275       9.15    0.140     71.00        0.229 0.95 1.00
           42    229       0.00 0.273       9.15    0.140     71.00        0.095 0.95 1.00
           42    230     251.09 0.274       9.15    0.140     71.00        0.111 0.95 1.00
           42    231    4502.93 0.274       9.15    0.140     71.00        0.288 0.95 1.00
           42    232  323874.56 0.276       9.15    0.100     71.00        8.207 0.95 1.00
           43    233       0.00 0.307       9.15    0.140     71.00        0.092 0.95 1.00
           43    234     256.16 0.306       9.15    0.140     71.00        0.150 0.95 1.00
           43    235       0.00 0.310       9.15    0.140     71.00        0.092 0.95 1.00
           43    236       0.00 0.304       9.15    0.140     71.00        0.092 0.95 1.00
           43    237       0.00 0.310       9.15    0.140     71.00        0.092 0.95 1.00
           43    238     194.63 0.307       9.15    0.140     71.00        0.138 0.95 1.00
           43    239   21885.04 0.309       9.15    0.100     71.00        2.937 0.95 1.00
           44    240       0.00 0.280       9.15    0.140     71.00        0.094 0.95 1.00
           44    241    4067.52 0.278       9.15    0.140     71.00        0.572 0.95 1.00
           44    242    1124.51 0.279       9.15    0.140     71.00        0.250 0.95 1.00
           44    243       0.00 0.280       9.15    0.140     71.00        0.094 0.95 1.00
           44    244      79.94 0.279       9.15    0.140     71.00        0.110 0.95 1.00
           44    245    8068.00 0.278       9.15    0.140     71.00        0.964 0.95 1.00
           44    246  482467.75 0.280       9.15    0.100     71.00       31.260 0.95 1.00
           45    247     531.98 0.208      15.24    0.140     71.00        0.238 0.95 1.00
           45    248    1608.66 0.209      15.24    0.140     71.00        0.398 0.95 1.00
           45    249     797.97 0.208      15.24    0.140     71.00        0.280 0.95 1.00
           45    250       0.00 0.207      15.24    0.140     71.00        0.141 0.95 1.00
           45    251     202.68 0.202      15.24    0.140     71.00        0.184 0.95 1.00
           45    252    4337.51 0.206      15.24    0.140     71.00        0.754 0.95 1.00
           45    253   61294.88 0.206      15.24    0.100     71.00        6.338 0.95 1.00
           46    254       0.00 0.216      15.24    0.140     71.00        0.139 0.95 1.00
           46    255     658.30 0.216      15.24    0.140     71.00        0.140 0.95 1.00
           46    256    1060.20 0.220      15.24    0.140     71.00        0.140 0.95 1.00
           46    257       0.00 0.217      15.24    0.140     71.00        0.139 0.95 1.00
           46    258     166.54 0.219      15.24    0.140     71.00        0.139 0.95 1.00
           46    259     670.51 0.220      15.24    0.140     71.00        0.139 0.95 1.00
           46    260  283068.09 0.218      15.24    0.100     71.00        0.330 0.95 1.00
           47    261       0.00 0.231      15.24    0.140     71.00        0.136 0.95 1.00
           47    262    9031.29 0.230      15.24    0.140     71.00        0.526 0.95 1.00
           47    263    5024.39 0.230      15.24    0.140     71.00        0.370 0.95 1.00
           47    264       0.00 0.231      15.24    0.140     71.00        0.136 0.95 1.00
           47    265     412.49 0.230      15.24    0.140     71.00        0.162 0.95 1.00
           47    266   10198.49 0.231      15.24    0.140     71.00        0.570 0.95 1.00
           47    267  866369.88 0.231      15.24    0.100     71.00       21.275 0.95 1.00
           48    268    1764.74 0.205      15.24    0.140     71.00        0.171 0.95 1.00
           48    269    7397.30 0.204      15.24    0.140     71.00        0.245 0.95 1.00
           48    270    2647.12 0.206      15.24    0.140     71.00        0.183 0.95 1.00
           48    271       0.00 0.206      15.24    0.140     71.00        0.141 0.95 1.00
           48    272     981.49 0.205      15.24    0.140     71.00        0.159 0.95 1.00
           48    273   25323.73 0.205      15.24    0.140     71.00        0.446 0.95 1.00
           48    274  224363.28 0.204      15.24    0.100     71.00        2.171 0.95 1.00
           49    275       0.00 0.234      15.24    0.140     71.00        0.135 0.95 1.00
           49    276     827.51 0.235      15.24    0.140     71.00        0.581 0.95 1.00
           49    277     365.10 0.236      15.24    0.140     71.00        0.353 0.95 1.00
           49    278       0.00 0.232      15.24    0.140     71.00        0.136 0.95 1.00
           49    279     406.36 0.230      15.24    0.140     71.00        0.375 0.95 1.00
           49    280    2994.68 0.234      15.24    0.140     71.00        1.508 0.95 1.00
           49    281   51889.35 0.232      15.24    0.100     71.00       16.764 0.95 1.00
           50    282       0.00 0.202      15.24    0.140     71.00        0.142 0.95 1.00
           50    283    8794.09 0.201      15.24    0.140     71.00        1.063 0.95 1.00
           50    284    5228.40 0.200      18.29    0.140     71.00        0.743 0.95 1.00
           50    285       0.00 0.202      15.24    0.140     71.00        0.142 0.95 1.00
           50    286      95.06 0.201      15.24    0.140     71.00        0.159 0.95 1.00
           50    287    8814.58 0.202      15.24    0.140     71.00        1.064 0.95 1.00
           50    288  253310.52 0.200      18.29    0.100     71.00       17.556 0.95 1.00
           51    289       0.00 0.286       9.15    0.140     71.00        0.094 0.95 1.00
           51    290    2670.90 0.287       9.15    0.140     71.00        0.200 0.95 1.00
           51    291     299.30 0.288       9.15    0.140     71.00        0.109 0.95 1.00
           51    292       0.00 0.287       9.15    0.140     71.00        0.094 0.95 1.00
           51    293       9.77 0.286       9.15    0.140     71.00        0.095 0.95 1.00
           51    294    5461.27 0.288       9.15    0.140     71.00        0.293 0.95 1.00
           51    295  266154.62 0.288       9.15    0.100     71.00        6.052 0.95 1.00
           52    296    4749.64 0.210      15.24    0.140     71.00        0.194 0.95 1.00
           52    297   16706.71 0.209      15.24    0.140     71.00        0.303 0.95 1.00
           52    298    7124.47 0.208      15.24    0.140     71.00        0.218 0.95 1.00
           52    299       0.00 0.210      15.24    0.140     71.00        0.140 0.95 1.00
           52    300    2809.22 0.210      15.24    0.140     71.00        0.174 0.95 1.00
           52    301   42180.46 0.209      15.24    0.140     71.00        0.507 0.95 1.00
           52    302  205998.42 0.209      15.24    0.100     71.00        1.586 0.95 1.00
           53    303     641.27 0.070      60.98    0.140     71.00        0.961 0.95 1.00
           53    304     530.55 0.071      60.98    0.140     71.00        0.880 0.95 1.00
           53    305     524.67 0.065      60.98    0.140     71.00        0.888 0.95 1.00
           53    306       0.00 0.069      60.98    0.140     71.00        0.449 0.95 1.00
           53    307       4.25 0.075      60.98    0.140     71.00        0.444 0.95 1.00
           53    308    2174.67 0.075      60.98    0.140     71.00        1.933 0.95 1.00
           53    309    5058.03 0.072      60.98    0.100     71.00        3.491 0.95 1.00
           54    310       0.00 0.278       9.15    0.140     71.00        0.095 0.95 1.00
           54    311    1727.83 0.278       9.15    0.140     71.00        0.147 0.95 1.00
           54    312     498.57 0.280       9.15    0.140     71.00        0.112 0.95 1.00
           54    313       0.00 0.279       9.15    0.140     71.00        0.095 0.95 1.00
           54    314      50.97 0.280       9.15    0.140     71.00        0.097 0.95 1.00
           54    315    4083.35 0.278       9.15    0.140     71.00        0.206 0.95 1.00
           54    316  260352.39 0.279       9.15    0.100     71.00        4.288 0.95 1.00
           55    317       0.00 0.257       9.15    0.140     71.00        0.097 0.95 1.00
           55    318    1152.31 0.254       9.15    0.140     71.00        0.267 0.95 1.00
           55    319    1112.89 0.256       9.15    0.140     71.00        0.262 0.95 1.00
           55    320       0.00 0.254       9.15    0.140     71.00        0.097 0.95 1.00
           55    321      28.91 0.253       9.15    0.140     71.00        0.104 0.95 1.00
           55    322    1568.32 0.254       9.15    0.140     71.00        0.320 0.95 1.00
           55    323   77640.59 0.256       9.15    0.100     71.00        6.837 0.95 1.00
           56    324   10952.07 0.067      60.98    0.140     71.00        1.202 0.95 1.00
           56    325   19425.84 0.070      60.98    0.140     71.00        1.684 0.95 1.00
           56    326    8960.78 0.069      60.98    0.140     71.00        1.078 0.95 1.00
           56    327       0.00 0.071      60.98    0.140     71.00        0.445 0.95 1.00
           56    328      39.21 0.070      60.98    0.140     71.00        0.452 0.95 1.00
           56    329   19455.50 0.071      60.98    0.140     71.00        1.684 0.95 1.00
           56    330   86600.23 0.070      60.98    0.100     71.00        4.941 0.95 1.00
           57    331   84212.92 0.137      24.39    0.140     71.00        5.188 0.95 1.00
           57    332   26969.34 0.138      24.39    0.140     71.00        2.048 0.95 1.00
           57    333   68901.48 0.138      24.39    0.140     71.00        4.386 0.95 1.00
           57    334       0.00 0.140      24.39    0.140     71.00        0.210 0.95 1.00
           57    335    1576.46 0.138      24.39    0.140     71.00        0.364 0.95 1.00
           57    336  106531.88 0.136      24.39    0.140     71.00        6.325 0.95 1.00
           57    337  439389.16 0.137      24.39    0.100     71.00       21.295 0.95 1.00
           58    338    1548.57 0.191      18.29    0.140     71.00        0.445 0.95 1.00
           58    339    3108.66 0.193      18.29    0.140     71.00        0.684 0.95 1.00
           58    340    1267.01 0.190      18.29    0.140     71.00        0.400 0.95 1.00
           58    341       0.00 0.193      18.29    0.140     71.00        0.160 0.95 1.00
           58    342      87.06 0.195      18.29    0.140     71.00        0.183 0.95 1.00
           58    343    8260.62 0.188      18.29    0.140     71.00        1.393 0.95 1.00
           58    344   65737.34 0.195      18.29    0.100     71.00        7.692 0.95 1.00
           59    345       0.00 0.319       9.15    0.140     71.00        0.091 0.95 1.00
           59    346    2014.15 0.318       9.15    0.140     71.00        0.306 0.95 1.00
           59    347     494.92 0.317       9.15    0.140     71.00        0.154 0.95 1.00
           59    348       0.00 0.317       9.15    0.140     71.00        0.091 0.95 1.00
           59    349      23.17 0.319       9.15    0.140     71.00        0.095 0.95 1.00
           59    350    2195.39 0.318       9.15    0.140     71.00        0.323 0.95 1.00
           59    351  146173.47 0.317       9.15    0.100     71.00        9.202 0.95 1.00
           60    352       0.00 0.299       9.15    0.140     71.00        0.093 0.95 1.00
           60    353    1964.35 0.301       9.15    0.140     71.00        0.126 0.95 1.00
           60    354       0.00 0.301       9.15    0.140     71.00        0.092 0.95 1.00
           60    355       0.00 0.301       9.15    0.140     71.00        0.092 0.95 1.00
           60    356       0.00 0.300       9.15    0.140     71.00        0.093 0.95 1.00
           60    357    4428.94 0.303       9.15    0.140     71.00        0.160 0.95 1.00
           60    358  223916.52 0.300       9.15    0.100     71.00        2.185 0.95 1.00
           61    359   31236.47 0.196      18.29    0.140     71.00        1.215 0.95 1.00
           61    360    8842.27 0.196      18.29    0.140     71.00        0.509 0.95 1.00
           61    361   46854.71 0.196      18.29    0.140     71.00        1.665 0.95 1.00
           61    362       0.00 0.196      18.29    0.140     71.00        0.159 0.95 1.00
           61    363    8110.83 0.195      18.29    0.140     71.00        0.484 0.95 1.00
           61    364   39629.57 0.197      18.29    0.140     71.00        1.460 0.95 1.00
           61    365  506729.34 0.195      18.29    0.100     71.00       12.224 0.95 1.00
           62    366       0.00 0.268       9.15    0.140     71.00        0.096 0.95 1.00
           62    367    7594.14 0.266       9.15    0.140     71.00        1.161 0.95 1.00
           62    368    2664.75 0.267       9.15    0.140     71.00        0.522 0.95 1.00
           62    369       0.00 0.265       9.15    0.140     71.00        0.096 0.95 1.00
           62    370      94.48 0.268       9.15    0.140     71.00        0.119 0.95 1.00
           62    371   11127.31 0.269       9.15    0.140     71.00        1.584 0.95 1.00
           62    372  428640.06 0.267       9.15    0.100     71.00       36.404 0.95 1.00
           63    373       0.00 0.204      15.24    0.140     71.00        0.141 0.95 1.00
           63    374     184.91 0.198      18.29    0.140     71.00        0.392 0.95 1.00
           63    375     164.01 0.213      15.24    0.140     71.00        0.349 0.95 1.00
           63    376       0.00 0.210      15.24    0.140     71.00        0.140 0.95 1.00
           63    377       3.68 0.205      15.24    0.140     71.00        0.149 0.95 1.00
           63    378     147.37 0.219      15.24    0.140     71.00        0.329 0.95 1.00
           63    379    6504.57 0.198      18.29    0.100     71.00        5.375 0.95 1.00
           64    380       0.00 0.233      15.24    0.140     71.00        0.136 0.95 1.00
           64    381    3454.03 0.237      15.24    0.140     71.00        0.186 0.95 1.00
           64    382    4416.39 0.235      15.24    0.140     71.00        0.199 0.95 1.00
           64    383       0.00 0.234      15.24    0.140     71.00        0.135 0.95 1.00
           64    384     497.75 0.235      15.24    0.140     71.00        0.145 0.95 1.00
           64    385    7093.33 0.235      15.24    0.140     71.00        0.232 0.95 1.00
           64    386  172110.84 0.237      15.24    0.100     71.00        1.681 0.95 1.00
           65    387   16691.19 0.184      18.29    0.140     71.00        0.845 0.95 1.00
           65    388    7257.18 0.185      18.29    0.140     71.00        0.492 0.95 1.00
           65    389   13656.42 0.185      18.29    0.140     71.00        0.735 0.95 1.00
           65    390       0.00 0.185      18.29    0.140     71.00        0.162 0.95 1.00
           65    391     133.14 0.186      18.29    0.140     71.00        0.172 0.95 1.00
           65    392   18687.98 0.185      18.29    0.140     71.00        0.916 0.95 1.00
           65    393  247097.34 0.185      18.29    0.100     71.00        7.350 0.95 1.00
           66    394       0.00 0.197      18.29    0.140     71.00        0.159 0.95 1.00
           66    395     318.65 0.198      18.29    0.140     71.00        0.251 0.95 1.00
           66    396     382.24 0.192      18.29    0.140     71.00        0.268 0.95 1.00
           66    397       0.00 0.194      18.29    0.140     71.00        0.160 0.95 1.00
           66    398       9.48 0.199      18.29    0.140     71.00        0.163 0.95 1.00
           66    399     232.28 0.201      15.24    0.140     71.00        0.212 0.95 1.00
           66    400   12776.36 0.194      18.29    0.100     71.00        2.457 0.95 1.00
           67    401       0.00 0.269       9.15    0.140     71.00        0.096 0.95 1.00
           67    402    5059.52 0.270       9.15    0.140     71.00        1.089 0.95 1.00
           67    403     944.88 0.268       9.15    0.140     71.00        0.325 0.95 1.00
           67    404       0.00 0.268       9.15    0.140     71.00        0.096 0.95 1.00
           67    405      49.75 0.269       9.15    0.140     71.00        0.113 0.95 1.00
           67    406    8457.52 0.270       9.15    0.140     71.00        1.653 0.95 1.00
           67    407  212329.47 0.267       9.15    0.100     71.00       26.208 0.95 1.00
           68    408       0.00 0.257       9.15    0.140     71.00        0.097 0.95 1.00
           68    409    3297.11 0.259       9.15    0.140     71.00        0.857 0.95 1.00
           68    410    4492.46 0.259       9.15    0.140     71.00        1.093 0.95 1.00
           68    411       0.00 0.257       9.15    0.140     71.00        0.097 0.95 1.00
           68    412     170.48 0.256       9.15    0.140     71.00        0.154 0.95 1.00
           68    413    6701.60 0.257       9.15    0.140     71.00        1.511 0.95 1.00
           68    414  219776.59 0.256       9.15    0.100     71.00       30.054 0.95 1.00
           69    415       0.00 0.291       9.15    0.140     71.00        0.093 0.95 1.00
           69    416    4271.24 0.291       9.15    0.140     71.00        0.338 0.95 1.00
           69    417    2191.89 0.291       9.15    0.140     71.00        0.230 0.95 1.00
           69    418       0.00 0.291       9.15    0.140     71.00        0.093 0.95 1.00
           69    419     298.61 0.290       9.15    0.140     71.00        0.117 0.95 1.00
           69    420    9468.14 0.292       9.15    0.140     71.00        0.585 0.95 1.00
           69    421  726471.31 0.291       9.15    0.100     71.00       22.007 0.95 1.00
           70    422       0.00 0.231      15.24    0.140     71.00        0.136 0.95 1.00
           70    423    4602.16 0.232      15.24    0.140     71.00        0.236 0.95 1.00
           70    424    4428.81 0.231      15.24    0.140     71.00        0.233 0.95 1.00
           70    425       0.00 0.231      15.24    0.140     71.00        0.136 0.95 1.00
           70    426     387.03 0.230      15.24    0.140     71.00        0.148 0.95 1.00
           70    427    5399.65 0.231      15.24    0.140     71.00        0.251 0.95 1.00
           70    428  419363.34 0.231      15.24    0.100     71.00        5.292 0.95 1.00
           71    429       0.00 0.254       9.15    0.140     71.00        0.097 0.95 1.00
           71    430    3059.05 0.253       9.15    0.140     71.00        0.179 0.95 1.00
           71    431    1627.78 0.253       9.15    0.140     71.00        0.144 0.95 1.00
           71    432       0.00 0.254       9.15    0.140     71.00        0.097 0.95 1.00
           71    433     127.84 0.253       9.15    0.140     71.00        0.102 0.95 1.00
           71    434    4964.59 0.253       9.15    0.140     71.00        0.221 0.95 1.00
           71    435  280909.38 0.253       9.15    0.100     71.00        4.314 0.95 1.00
           72    436       0.00 0.245      15.24    0.140     71.00        0.134 0.95 1.00
           72    437    4538.72 0.246      15.24    0.140     71.00        0.511 0.95 1.00
           72    438    9505.58 0.246      15.24    0.140     71.00        0.855 0.95 1.00
           72    439       0.00 0.245      15.24    0.140     71.00        0.134 0.95 1.00
           72    440     726.92 0.246      15.24    0.140     71.00        0.209 0.95 1.00
           72    441    8567.58 0.245      15.24    0.140     71.00        0.792 0.95 1.00
           72    442  669003.06 0.245      15.24    0.100     71.00       29.928 0.95 1.00
           73    443       0.00 0.279       9.15    0.140     71.00        0.095 0.95 1.00
           73    444    1290.55 0.279       9.15    0.140     71.00        0.129 0.95 1.00
           73    445    3385.91 0.281       9.15    0.140     71.00        0.174 0.95 1.00
           73    446       0.00 0.279       9.15    0.140     71.00        0.095 0.95 1.00
           73    447     349.13 0.279       9.15    0.140     71.00        0.105 0.95 1.00
           73    448    2100.40 0.280       9.15    0.140     71.00        0.147 0.95 1.00
           73    449  366608.09 0.278       9.15    0.100     71.00        4.879 0.95 1.00
           74    450       0.00 0.234      15.24    0.140     71.00        0.135 0.95 1.00
           74    451    2264.19 0.234      15.24    0.140     71.00        0.217 0.95 1.00
           74    452   15664.42 0.234      15.24    0.140     71.00        0.578 0.95 1.00
           74    453       0.00 0.235      15.24    0.140     71.00        0.135 0.95 1.00
           74    454    4487.88 0.235      15.24    0.140     71.00        0.284 0.95 1.00
           74    455    2732.59 0.236      15.24    0.140     71.00        0.231 0.95 1.00
           74    456  499618.72 0.234      15.24    0.100     71.00        9.269 0.95 1.00
           75    457       0.00 0.280       9.15    0.140     71.00        0.094 0.95 1.00
           75    458     480.63 0.280       9.15    0.140     71.00        0.106 0.95 1.00
           75    459     403.01 0.280       9.15    0.140     71.00        0.105 0.95 1.00
           75    460       0.00 0.279       9.15    0.140     71.00        0.095 0.95 1.00
           75    461      61.52 0.279       9.15    0.140     71.00        0.097 0.95 1.00
           75    462    1344.60 0.280       9.15    0.140     71.00        0.124 0.95 1.00
           75    463  422109.66 0.279       9.15    0.100     71.00        4.542 0.95 1.00
           76    464       0.00 0.222      15.24    0.140     71.00        0.138 0.95 1.00
           76    465     502.29 0.222      15.24    0.140     71.00        0.162 0.95 1.00
           76    466    3582.21 0.226      15.24    0.140     71.00        0.273 0.95 1.00
           76    467       0.00 0.223      15.24    0.140     71.00        0.137 0.95 1.00
           76    468     778.44 0.225      15.24    0.140     71.00        0.173 0.95 1.00
           76    469    1282.88 0.222      15.24    0.140     71.00        0.193 0.95 1.00
           76    470  219077.73 0.223      15.24    0.100     71.00        5.094 0.95 1.00
           77    471       0.00 0.176      18.29    0.140     71.00        0.165 0.95 1.00
           77    472   16955.22 0.176      18.29    0.140     71.00        1.998 0.95 1.00
           77    473   15835.39 0.177      18.29    0.140     71.00        1.891 0.95 1.00
           77    474       0.00 0.175      18.29    0.140     71.00        0.165 0.95 1.00
           77    475     882.32 0.178      18.29    0.140     71.00        0.302 0.95 1.00
           77    476   15476.97 0.177      18.29    0.140     71.00        1.857 0.95 1.00
           77    477  293320.19 0.177      18.29    0.100     71.00       22.338 0.95 1.00
           78    478     447.78 0.022      91.46    0.140     71.00        0.921 0.95 1.00
           78    479     291.76 0.023      91.46    0.140     71.00        0.875 0.95 1.00
           78    480     366.37 0.023      91.46    0.140     71.00        0.892 0.95 1.00
           78    481       0.00 0.022      91.46    0.140     71.00        0.807 0.95 1.00
           78    482       0.00 0.025      91.46    0.140     71.00        0.776 0.95 1.00
           78    483     464.63 0.023      91.46    0.140     71.00        0.914 0.95 1.00
           78    484    4814.03 0.023      91.46    0.100     71.00        1.566 0.95 1.00
           79    485       0.00 0.042      91.46    0.140     71.00        0.665 0.95 1.00
           79    486   20019.91 0.042      91.46    0.140     71.00        5.288 0.95 1.00
           79    487   26564.99 0.042      91.46    0.140     71.00        6.586 0.95 1.00
           79    488       0.00 0.043      91.46    0.140     71.00        0.660 0.95 1.00
           79    489    6491.66 0.043      91.46    0.140     71.00        2.386 0.95 1.00
           79    490    9578.99 0.043      91.46    0.140     71.00        3.085 0.95 1.00
           79    491  261187.06 0.043      91.46    0.100     71.00       44.292 0.95 1.00
           80    492       0.00 0.248      15.24    0.140     71.00        0.133 0.95 1.00
           80    493      21.77 0.255       9.15    0.140     71.00        0.101 0.95 1.00
           80    494       0.00 0.253       9.15    0.140     71.00        0.097 0.95 1.00
           80    495       0.00 0.256       9.15    0.140     71.00        0.097 0.95 1.00
           80    496       0.00 0.252       9.15    0.140     71.00        0.098 0.95 1.00
           80    497      24.92 0.255       9.15    0.140     71.00        0.102 0.95 1.00
           80    498   60856.60 0.253       9.15    0.100     71.00        4.492 0.95 1.00
           81    499    5465.77 0.034      91.46    0.140     71.00        1.710 0.95 1.00
           81    500   10455.81 0.034      91.46    0.140     71.00        2.475 0.95 1.00
           81    501    4471.99 0.034      91.46    0.140     71.00        1.549 0.95 1.00
           81    502       0.00 0.035      91.46    0.140     71.00        0.702 0.95 1.00
           81    503    1413.48 0.035      91.46    0.140     71.00        1.009 0.95 1.00
           81    504   12446.04 0.034      91.46    0.140     71.00        2.767 0.95 1.00
           81    505   86781.40 0.034      91.46    0.100     71.00       11.838 0.95 1.00
           82    506       0.00 0.310       9.15    0.140     71.00        0.092 0.95 1.00
           82    507     595.19 0.314       9.15    0.140     71.00        0.139 0.95 1.00
           82    508     472.26 0.312       9.15    0.140     71.00        0.130 0.95 1.00
           82    509       0.00 0.314       9.15    0.140     71.00        0.091 0.95 1.00
           82    510     180.37 0.311       9.15    0.140     71.00        0.108 0.95 1.00
           82    511    2039.16 0.312       9.15    0.140     71.00        0.232 0.95 1.00
           82    512  281996.12 0.313       9.15    0.100     71.00       10.554 0.95 1.00
           83    513       0.00 0.039      91.46    0.140     71.00        0.679 0.95 1.00
           83    514   16917.97 0.040      91.46    0.140     71.00        4.006 0.95 1.00
           83    515    7591.60 0.039      91.46    0.140     71.00        2.332 0.95 1.00
           83    516       0.00 0.041      91.46    0.140     71.00        0.669 0.95 1.00
           83    517     538.67 0.040      91.46    0.140     71.00        0.838 0.95 1.00
           83    518   10906.08 0.041      91.46    0.140     71.00        2.938 0.95 1.00
           83    519  166719.38 0.039      91.46    0.100     71.00       25.219 0.95 1.00
           84    520       0.00 0.219      15.24    0.140     71.00        0.138 0.95 1.00
           84    521     139.29 0.217      15.24    0.140     71.00        0.164 0.95 1.00
           84    522      12.76 0.209      15.24    0.140     71.00        0.143 0.95 1.00
           84    523       0.00 0.218      15.24    0.140     71.00        0.138 0.95 1.00
           84    524       3.34 0.220      15.24    0.140     71.00        0.139 0.95 1.00
           84    525     123.64 0.214      15.24    0.140     71.00        0.162 0.95 1.00
           84    526   48768.71 0.220      15.24    0.100     71.00        4.466 0.95 1.00
           85    527       0.00 0.079      60.98    0.140     71.00        0.431 0.95 1.00
           85    528     472.60 0.079      60.98    0.140     71.00        0.636 0.95 1.00
           85    529    1594.29 0.078      60.98    0.140     71.00        1.026 0.95 1.00
           85    530       0.00 0.081      60.98    0.140     71.00        0.428 0.95 1.00
           85    531     661.21 0.076      60.98    0.140     71.00        0.711 0.95 1.00
           85    532     236.32 0.078      60.98    0.140     71.00        0.544 0.95 1.00
           85    533   13240.67 0.076      60.98    0.100     71.00        4.138 0.95 1.00
           86    534       0.00 0.174      18.29    0.140     71.00        0.165 0.95 1.00
           86    535    1074.49 0.171      18.29    0.140     71.00        0.279 0.95 1.00
           86    536     623.44 0.173      18.29    0.140     71.00        0.236 0.95 1.00
           86    537       0.00 0.173      18.29    0.140     71.00        0.165 0.95 1.00
           86    538     188.72 0.172      18.29    0.140     71.00        0.190 0.95 1.00
           86    539     570.63 0.172      18.29    0.140     71.00        0.231 0.95 1.00
           86    540  393635.62 0.173      18.29    0.100     71.00       19.991 0.95 1.00
           87    541       0.00 0.024      91.46    0.140     71.00        0.786 0.95 1.00
           87    542    1165.47 0.026      91.46    0.140     71.00        1.595 0.95 1.00
           87    543    1519.21 0.024      91.46    0.140     71.00        1.830 0.95 1.00
           87    544       0.00 0.025      91.46    0.140     71.00        0.776 0.95 1.00
           87    545     388.98 0.024      91.46    0.140     71.00        1.103 0.95 1.00
           87    546    1111.78 0.021      91.46    0.140     71.00        1.613 0.95 1.00
           87    547    8160.07 0.024      91.46    0.100     71.00        5.188 0.95 1.00
           88    548   45663.09 0.016     121.95    0.140     71.00        5.616 0.95 1.00
           88    549  129963.66 0.017     121.95    0.140     71.00       12.426 0.95 1.00
           88    550   37360.71 0.017     121.95    0.140     71.00        4.862 0.95 1.00
           88    551       0.00 0.017     121.95    0.140     71.00        1.036 0.95 1.00
           88    552       2.70 0.016     121.95    0.140     71.00        1.056 0.95 1.00
           88    553  112981.34 0.017     121.95    0.140     71.00       11.113 0.95 1.00
           88    554  541155.88 0.017     121.95    0.100     71.00       40.528 0.95 1.00
           89    555   37694.89 0.024      91.46    0.140     71.00        3.685 0.95 1.00
           89    556   55793.81 0.023      91.46    0.140     71.00        4.881 0.95 1.00
           89    557   30841.28 0.024      91.46    0.140     71.00        3.218 0.95 1.00
           89    558       0.00 0.024      91.46    0.140     71.00        0.786 0.95 1.00
           89    559     414.98 0.024      91.46    0.140     71.00        0.842 0.95 1.00
           89    560   42593.27 0.024      91.46    0.140     71.00        4.012 0.95 1.00
           89    561  238768.88 0.024      91.46    0.100     71.00       15.220 0.95 1.00
           90    562    4027.39 0.016     121.95    0.140     71.00        2.102 0.95 1.00
           90    563    6415.70 0.016     121.95    0.140     71.00        2.629 0.95 1.00
           90    564    3295.13 0.016     121.95    0.140     71.00        1.934 0.95 1.00
           90    565       0.00 0.017     121.95    0.140     71.00        1.036 0.95 1.00
           90    566      13.89 0.016     121.95    0.140     71.00        1.062 0.95 1.00
           90    567    4035.25 0.017     121.95    0.140     71.00        2.085 0.95 1.00
           90    568   33202.55 0.016     121.95    0.100     71.00        7.496 0.95 1.00
           91    569    3738.62 0.065      60.98    0.140     71.00        0.514 0.95 1.00
           91    570   35468.04 0.065      60.98    0.140     71.00        0.864 0.95 1.00
           91    571    3058.87 0.063      60.98    0.140     71.00        0.509 0.95 1.00
           91    572       0.00 0.065      60.98    0.140     71.00        0.457 0.95 1.00
           91    573     155.63 0.064      60.98    0.140     71.00        0.463 0.95 1.00
           91    574   33441.15 0.066      60.98    0.140     71.00        0.842 0.95 1.00
           91    575  131561.58 0.064      60.98    0.100     71.00        1.657 0.95 1.00
           92    576       0.00 0.113      60.98    0.140     71.00        0.387 0.95 1.00
           92    577     117.74 0.121      24.39    0.140     71.00        0.408 0.95 1.00
           92    578     230.93 0.115      60.98    0.140     71.00        0.727 0.95 1.00
           92    579       0.00 0.124      24.39    0.140     71.00        0.217 0.95 1.00
           92    580     141.03 0.115      60.98    0.140     71.00        0.607 0.95 1.00
           92    581     160.52 0.128      24.39    0.140     71.00        0.464 0.95 1.00
           92    582    4390.06 0.112      60.98    0.100     71.00        4.811 0.95 1.00
           93    583   29166.16 0.096      60.98    0.140     71.00        1.418 0.95 1.00
           93    584     134.42 0.094      60.98    0.140     71.00        0.418 0.95 1.00
           93    585   23863.22 0.094      60.98    0.140     71.00        1.257 0.95 1.00
           93    586       0.00 0.094      60.98    0.140     71.00        0.409 0.95 1.00
           93    587   13010.58 0.093      60.98    0.140     71.00        0.909 0.95 1.00
           93    588   55792.55 0.095      60.98    0.140     71.00        2.191 0.95 1.00
           93    589  272717.12 0.093      60.98    0.100     71.00        7.484 0.95 1.00
           94    590    3678.58 0.169      18.29    0.140     71.00        0.269 0.95 1.00
           94    591    4931.25 0.168      18.29    0.140     71.00        0.300 0.95 1.00
           94    592    3009.75 0.170      18.29    0.140     71.00        0.253 0.95 1.00
           94    593       0.00 0.169      18.29    0.140     71.00        0.167 0.95 1.00
           94    594    1868.66 0.170      18.29    0.140     71.00        0.223 0.95 1.00
           94    595   58925.48 0.169      18.29    0.140     71.00        1.331 0.95 1.00
           94    596  409767.88 0.170      18.29    0.100     71.00        6.489 0.95 1.00
           95    597    1414.76 0.023      91.46    0.140     71.00        1.418 0.95 1.00
           95    598   13983.91 0.024      91.46    0.140     71.00        5.405 0.95 1.00
           95    599    1157.53 0.023      91.46    0.140     71.00        1.318 0.95 1.00
           95    600       0.00 0.024      91.46    0.140     71.00        0.786 0.95 1.00
           95    601       0.26 0.024      91.46    0.140     71.00        0.786 0.95 1.00
           95    602   10195.19 0.024      91.46    0.140     71.00        4.289 0.95 1.00
           95    603   52845.46 0.023      91.46    0.100     71.00       15.434 0.95 1.00
           96    604       0.00 0.106      60.98    0.140     71.00        0.395 0.95 1.00
           96    605    2320.34 0.106      60.98    0.140     71.00        0.408 0.95 1.00
           96    606    6068.45 0.105      60.98    0.140     71.00        0.427 0.95 1.00
           96    607       0.00 0.108      60.98    0.140     71.00        0.392 0.95 1.00
           96    608    1064.91 0.105      60.98    0.140     71.00        0.403 0.95 1.00
           96    609     906.48 0.103      60.98    0.140     71.00        0.404 0.95 1.00
           96    610  206836.44 0.103      60.98    0.100     71.00        1.002 0.95 1.00
           97    611   19228.43 0.012     121.95    0.140     71.00        2.982 0.95 1.00
           97    612   66046.49 0.012     121.95    0.140     71.00        6.542 0.95 1.00
           97    613   15732.35 0.012     121.95    0.140     71.00        2.687 0.95 1.00
           97    614       0.00 0.012     121.95    0.140     71.00        1.150 0.95 1.00
           97    615       1.09 0.012     121.95    0.140     71.00        1.150 0.95 1.00
           97    616   37605.23 0.012     121.95    0.140     71.00        4.444 0.95 1.00
           97    617  209619.33 0.012     121.95    0.100     71.00       15.753 0.95 1.00
           98    618    2122.47 0.019     121.95    0.140     71.00        1.278 0.95 1.00
           98    619   12992.32 0.019     121.95    0.140     71.00        2.351 0.95 1.00
           98    620    1736.56 0.019     121.95    0.140     71.00        1.234 0.95 1.00
           98    621       0.00 0.019     121.95    0.140     71.00        1.002 0.95 1.00
           98    622     163.05 0.019     121.95    0.140     71.00        1.031 0.95 1.00
           98    623   11839.31 0.019     121.95    0.140     71.00        2.246 0.95 1.00
           98    624   50710.68 0.019     121.95    0.100     71.00        5.260 0.95 1.00
           99    625       0.00 0.040      91.46    0.140     71.00        0.674 0.95 1.00
           99    626    5472.56 0.042      91.46    0.140     71.00        1.415 0.95 1.00
           99    627    3949.27 0.042      91.46    0.140     71.00        1.229 0.95 1.00
           99    628       0.00 0.041      91.46    0.140     71.00        0.669 0.95 1.00
           99    629     232.55 0.039      91.46    0.140     71.00        0.727 0.95 1.00
           99    630    4646.91 0.043      91.46    0.140     71.00        1.310 0.95 1.00
           99    631   74701.53 0.039      91.46    0.100     71.00        7.946 0.95 1.00
          100    632       0.00 0.150      24.39    0.140     71.00        0.205 0.95 1.00
          100    633    7767.88 0.147      24.39    0.140     71.00        1.011 0.95 1.00
          100    634    5593.57 0.147      24.39    0.140     71.00        0.810 0.95 1.00
          100    635       0.00 0.147      24.39    0.140     71.00        0.206 0.95 1.00
          100    636     893.27 0.148      24.39    0.140     71.00        0.327 0.95 1.00
          100    637    3061.92 0.146      24.39    0.140     71.00        0.563 0.95 1.00
          100    638  602538.75 0.146      24.39    0.100     71.00       36.377 0.95 1.00
          101    639       0.00 0.025      91.46    0.140     71.00        0.776 0.95 1.00
          101    640    7727.72 0.025      91.46    0.140     71.00        3.853 0.95 1.00
          101    641    8207.47 0.025      91.46    0.140     71.00        4.020 0.95 1.00
          101    642       0.00 0.025      91.46    0.140     71.00        0.776 0.95 1.00
          101    643    2472.67 0.025      91.46    0.140     71.00        1.912 0.95 1.00
          101    644     846.99 0.025      91.46    0.140     71.00        1.221 0.95 1.00
          101    645   76286.45 0.025      91.46    0.100     71.00       23.448 0.95 1.00
          102    646       0.00 0.060      60.98    0.140     71.00        0.468 0.95 1.00
          102    647    6696.17 0.060      60.98    0.140     71.00        0.568 0.95 1.00
          102    648    1707.67 0.060      60.98    0.140     71.00        0.498 0.95 1.00
          102    649       0.00 0.060      60.98    0.140     71.00        0.468 0.95 1.00
          102    650     777.16 0.060      60.98    0.140     71.00        0.483 0.95 1.00
          102    651    2046.87 0.061      60.98    0.140     71.00        0.501 0.95 1.00
          102    652  212534.62 0.060      60.98    0.100     71.00        2.446 0.95 1.00
          103    653   23162.34 0.026      91.46    0.140     71.00        2.092 0.95 1.00
          103    654   59894.84 0.026      91.46    0.140     71.00        3.810 0.95 1.00
          103    655   18951.00 0.025      91.46    0.140     71.00        1.888 0.95 1.00
          103    656       0.00 0.026      91.46    0.140     71.00        0.767 0.95 1.00
          103    657      63.36 0.026      91.46    0.140     71.00        0.775 0.95 1.00
          103    658   31577.51 0.025      91.46    0.140     71.00        2.514 0.95 1.00
          103    659  221026.81 0.026      91.46    0.100     71.00       10.164 0.95 1.00
          104    660   61620.59 0.028      91.46    0.140     71.00        4.536 0.95 1.00
          104    661  129593.01 0.028      91.46    0.140     71.00        8.005 0.95 1.00
          104    662   50416.85 0.028      91.46    0.140     71.00        3.926 0.95 1.00
          104    663       0.00 0.028      91.46    0.140     71.00        0.751 0.95 1.00
          104    664     928.40 0.028      91.46    0.140     71.00        0.847 0.95 1.00
          104    665  135874.06 0.028      91.46    0.140     71.00        8.312 0.95 1.00
          104    666  436245.25 0.027      91.46    0.100     71.00       21.604 0.95 1.00
          105    667     328.03 0.017     121.95    0.140     71.00        1.112 0.95 1.00
          105    668    1578.13 0.018     121.95    0.140     71.00        1.319 0.95 1.00
          105    669     268.38 0.020     121.95    0.140     71.00        1.050 0.95 1.00
          105    670       0.00 0.018     121.95    0.140     71.00        1.018 0.95 1.00
          105    671       2.30 0.014     121.95    0.140     71.00        1.099 0.95 1.00
          105    672     459.25 0.019     121.95    0.140     71.00        1.104 0.95 1.00
          105    673    3387.64 0.019     121.95    0.100     71.00        1.406 0.95 1.00
          106    674   11678.38 0.048      91.46    0.140     71.00        0.935 0.95 1.00
          106    675   14432.34 0.048      91.46    0.140     71.00        0.995 0.95 1.00
          106    676    9555.04 0.048      91.46    0.140     71.00        0.887 0.95 1.00
[...]
            128       38.42 0.000    82.18      0.0000 0.014      38.42 0.000   510.96     7.01      0.0000 0.014     2.56
            129       52.27 0.000   152.28      0.0000 0.014      52.27 0.000   404.00     5.99      0.0000 0.014     4.19
            130        8.96 0.001    40.88      0.0000 0.014       8.96 0.001   754.65     9.09      0.0000 0.014     0.31
            131      105.50 0.000   236.21      0.0000 0.014     105.50 0.000   236.21     4.19      0.0000 0.014     9.17
            132        9.62 0.001   151.43      0.0000 0.014       9.62 0.001   151.43     3.12      0.0000 0.014     0.65
            133       37.11 0.000    70.05      0.0000 0.014      37.11 0.000   802.86     9.48      0.0000 0.014     6.81
            134       71.03 0.000   180.40      0.0000 0.014      71.03 0.000   608.40     7.88      0.0000 0.014     6.83
            135       10.87 0.001    15.90      0.0000 0.014      10.87 0.001  3550.93    25.53      0.0000 0.014     0.18
            136       11.38 0.001    20.34      0.0000 0.014      11.38 0.001  1435.67    13.96      0.0000 0.014     0.26
            137        6.68 0.001    20.06      0.0000 0.014       6.68 0.001  1371.93    13.55      0.0000 0.014     0.17
            138       94.26 0.000   208.44      0.0000 0.014      94.26 0.000   208.44     3.86      0.0000 0.014     7.83
            139       47.37 0.000    50.73      0.0000 0.014      47.37 0.000  1345.04    13.37      0.0000 0.014     4.22
            140       41.84 0.000   113.33      0.0000 0.014      41.84 0.000  1419.88    13.86      0.0000 0.014     3.26
            141       17.15 0.001   154.09      0.0000 0.014      17.15 0.001   154.09     3.15      0.0000 0.014     1.58
            142       12.16 0.003   126.48      0.0000 0.014      12.16 0.003   126.48     2.76      0.0000 0.014     0.52
            143       25.23 0.007    15.41      0.0000 0.014      25.23 0.007   102.12     2.40      0.0000 0.014     0.77
            144        9.56 0.001    13.07      0.0000 0.014       9.56 0.001  1309.80    13.13      0.0000 0.014     0.24
            145       75.27 0.000    81.09      0.0000 0.014      75.27 0.000   317.36     5.10      0.0000 0.014     6.97
            146       30.62 0.000    45.73      0.0000 0.014      30.62 0.000   293.48     4.84      0.0000 0.014     2.99
            147       45.33 0.000   161.20      0.0000 0.014      45.33 0.000   161.20     3.25      0.0000 0.014     4.57
            148       65.99 0.002   177.65      0.0000 0.014      65.99 0.002   177.65     3.47      0.0000 0.014     2.87
            149       16.25 0.001    64.34      0.0000 0.014      16.25 0.001   884.16    10.11      0.0000 0.014     0.49
            150       36.22 0.000   154.64      0.0000 0.014      36.22 0.000   154.64     3.16      0.0000 0.014     5.13
            151       33.85 0.000    55.40      0.0000 0.014      33.85 0.000   844.03     9.80      0.0000 0.014     6.07
            152        3.65 0.013    20.38      0.0000 0.014       3.65 0.013    87.67     2.16      0.0000 0.014     0.09
            153        6.35 0.001     9.06      0.0000 0.014       6.35 0.001  3582.72    25.69      0.0000 0.014     0.10
            154       20.62 0.030    39.64      0.0000 0.014      20.62 0.030    39.64     1.27      0.0000 0.014     0.46
            155       21.12 0.001   166.40      0.0000 0.014      21.12 0.001   166.40     3.32      0.0000 0.014     1.16
            156       20.80 0.002    54.19      0.0000 0.014      20.81 0.002    54.19     1.57      0.0000 0.014     1.54
            157        0.50 0.018    29.95      0.0000 0.014       0.50 0.018    29.95     1.06      0.0000 0.014     0.02
            158       58.43 0.001   166.98      0.0000 0.014      58.43 0.001   166.98     3.33      0.0000 0.014     4.20
            159       47.51 0.000   208.18      0.0000 0.014      47.51 0.000   208.18     3.85      0.0000 0.014     3.99
            160       50.14 0.000   142.99      0.0000 0.014      50.14 0.000   473.60     6.66      0.0000 0.014     5.04
            161       16.19 0.001    16.79      0.0000 0.014      16.19 0.001   252.68     4.39      0.0000 0.014     0.76
            162        9.90 0.002   125.33      0.0000 0.014       9.90 0.002   125.33     2.75      0.0000 0.014     0.54
            163       36.81 0.002   163.93      0.0000 0.014      36.81 0.002   163.93     3.29      0.0000 0.014     1.85
            164       18.01 0.001   170.98      0.0000 0.014      18.01 0.001   170.98     3.38      0.0000 0.014     1.04
            165      149.14 0.000   227.37      0.0000 0.014     149.14 0.000   610.14     7.89      0.0000 0.014    13.83
            166       37.67 0.001   169.79      0.0000 0.014      37.67 0.001   169.79     3.36      0.0000 0.014     2.36
            167       18.08 0.005    67.14      0.0000 0.014      18.08 0.005   269.23     4.57      0.0000 0.014     0.44
            168       58.91 0.000   168.56      0.0000 0.014      58.91 0.000   168.56     3.35      0.0000 0.014     9.73
            169       48.66 0.000   165.06      0.0000 0.014      48.66 0.000   165.06     3.30      0.0000 0.014     4.79
            170       11.23 0.002    12.45      0.0000 0.014      11.23 0.002  3616.08    25.84      0.0000 0.014     0.12
            171        9.74 0.001   149.81      0.0000 0.014       9.74 0.001   149.81     3.09      0.0000 0.014     0.55
            172       21.58 0.000   140.01      0.0000 0.014      21.58 0.000   140.01     2.96      0.0000 0.014     4.01
            173       96.03 0.000   177.04      0.0000 0.014      96.03 0.000   319.75     5.13      0.0000 0.014     9.61
            174        4.10 0.001   127.92      0.0000 0.014       4.10 0.001   127.92     2.79      0.0000 0.014     0.25
            175        4.75 0.000   124.77      0.0000 0.014       4.75 0.000   124.77     2.74      0.0000 0.014     0.54
            176       26.55 0.000    43.52      0.0000 0.014      26.55 0.000   212.40     3.90      0.0000 0.014     3.51
            177        7.50 0.000   146.27      0.0000 0.014       7.50 0.000   146.27     3.05      0.0000 0.014     1.42
            178       19.24 0.000   170.78      0.0000 0.014      19.24 0.000   170.78     3.38      0.0000 0.014     3.06
            179       14.13 0.001    37.65      0.0000 0.014      14.13 0.001   247.26     4.32      0.0000 0.014     0.76
            180       31.91 0.000    48.36      0.0000 0.014      31.91 0.000   850.30     9.85      0.0000 0.014     1.54
            181       93.26 0.000   188.79      0.0000 0.014      93.26 0.000   188.79     3.61      0.0000 0.014     8.96
            182        6.18 0.001     4.61      0.0000 0.014       6.18 0.001  1116.83    11.81      0.0000 0.014     0.17
            183      258.23 0.000   270.87      0.0000 0.014     258.23 0.000   403.32     5.99      0.0000 0.014    24.96
            184      197.70 0.000   264.26      0.0000 0.014     197.70 0.000   634.36     8.10      0.0000 0.014    13.19
            185        7.26 0.003   135.07      0.0000 0.014       7.26 0.003   135.07     2.89      0.0000 0.014     0.32
            186       68.11 0.001   216.29      0.0000 0.014      68.11 0.001   216.29     3.95      0.0000 0.014     4.41
            187        7.93 0.002     9.74      0.0000 0.014       7.93 0.002   508.50     6.99      0.0000 0.014     0.25
            188        5.02 0.002     8.00      0.0000 0.014       5.02 0.002   471.13     6.64      0.0000 0.014     0.16
            189       78.07 0.000   207.33      0.0000 0.014      78.07 0.000   416.36     6.12      0.0000 0.014    13.59
            190       45.84 0.001   223.74      0.0000 0.014      45.84 0.001   673.30     8.43      0.0000 0.014     1.58
            191      173.58 0.002   288.01      0.0000 0.014     173.58 0.002   430.64     6.26      0.0000 0.014     5.54
            192      111.13 0.000   171.19      0.0000 0.014     111.13 0.000   171.19     3.38      0.0000 0.014    12.48
            193      105.81 0.000   204.89      0.0000 0.014     105.81 0.000  3940.71    27.37      0.0000 0.014     3.24
            194       27.49 0.000   130.52      0.0000 0.014      27.50 0.000   130.52     2.82      0.0000 0.014     3.43
            195       60.57 0.001   205.42      0.0000 0.014      60.57 0.001   205.42     3.82      0.0000 0.014     3.66
            196       79.69 0.001   185.29      0.0000 0.014      79.69 0.001   750.67     9.06      0.0000 0.014     2.61
            197       38.37 0.000   150.49      0.0000 0.014      38.37 0.000   150.49     3.10      0.0000 0.014     4.64
            198       72.48 0.000   188.24      0.0000 0.014      72.48 0.000   188.24     3.60      0.0000 0.014     9.20
            199       31.12 0.000    37.26      0.0000 0.014      31.12 0.000   250.55     4.36      0.0000 0.014     3.82
            200       11.57 0.001    36.88      0.0000 0.014      11.57 0.001   823.63     9.64      0.0000 0.014     0.36
            201       35.69 0.000   140.32      0.0000 0.014      35.69 0.000  3966.97    27.49      0.0000 0.014     1.24
            202       62.90 0.001   111.27      0.0000 0.014      62.90 0.001   899.65    10.22      0.0000 0.014     1.90
            203       90.94 0.000   234.18      0.0000 0.014      90.94 0.000   234.18     4.17      0.0000 0.014     7.48
            204       21.21 0.000   138.54      0.0000 0.014      21.21 0.000   138.54     2.94      0.0000 0.014     4.94
            205      104.14 0.001   191.17      0.0000 0.014     104.14 0.001   191.17     3.64      0.0000 0.014     6.29
            206       66.72 0.000   182.58      0.0000 0.014      66.72 0.000   182.58     3.53      0.0000 0.014     6.86
            207      139.23 0.000   244.68      0.0000 0.014     139.23 0.000   244.68     4.29      0.0000 0.014    12.92
            208       44.99 0.001   168.31      0.0000 0.014      44.99 0.001   955.42    10.64      0.0000 0.014     1.32
            209       31.36 0.000    62.80      0.0000 0.014      31.36 0.000  3984.50    27.57      0.0000 0.014     2.81
            210       55.27 0.001   187.11      0.0000 0.014      55.27 0.001   187.11     3.59      0.0000 0.014     2.91
            211       19.57 0.001    92.04      0.0000 0.014      19.57 0.001   518.51     7.08      0.0000 0.014     0.76
            212        7.99 0.001    40.04      0.0000 0.014       7.99 0.001  4007.08    27.68      0.0000 0.014     0.12
            213      149.98 0.001   235.28      0.0000 0.014     149.98 0.001   235.28     4.18      0.0000 0.014    11.03
            214       49.70 0.001    61.69      0.0000 0.014      49.70 0.001  1154.80    12.07      0.0000 0.014     1.34
            215       51.87 0.000    93.19      0.0000 0.014      51.87 0.000    93.19     2.26      0.0000 0.014    10.51
            216        7.93 0.003    62.01      0.0000 0.014       7.93 0.003    62.01     1.72      0.0000 0.014     0.45
            217        7.17 0.001    56.41      0.0000 0.014       7.17 0.001    56.41     1.61      0.0000 0.014     0.75
            218        3.05 0.001     5.61      0.0000 0.014       3.05 0.001  1160.18    12.11      0.0000 0.014     0.08
            219        1.56 0.001     2.16      0.0000 0.014       1.56 0.001  1164.71    12.14      0.0000 0.014     0.04
            220       37.32 0.001    69.80      0.0000 0.014      37.32 0.001    69.80     1.86      0.0000 0.014     2.98
            221       16.69 0.001    44.51      0.0000 0.014      16.69 0.001  1174.12    12.21      0.0000 0.014     0.45
            222       18.01 0.001    67.04      0.0000 0.014      18.01 0.001    67.04     1.81      0.0000 0.014     1.51
            223        6.05 0.001     7.58      0.0000 0.014       6.05 0.001  1180.23    12.25      0.0000 0.014     0.16
            224       18.51 0.001    23.60      0.0000 0.014      18.51 0.001  1191.53    12.33      0.0000 0.014     0.49
            225       43.62 0.000    87.63      0.0000 0.014      43.62 0.000    87.63     2.16      0.0000 0.014    16.75
            226       50.68 0.000    42.03      0.0000 0.014      50.68 0.000  4330.92    29.15      0.0000 0.014     2.03
            227      218.52 0.000   267.47      0.0000 0.014     218.52 0.000   267.47     4.55      0.0000 0.014    18.67
            228        5.20 0.000    55.18      0.0000 0.014       5.20 0.000    55.18     1.59      0.0000 0.014     0.89
            229       11.89 0.001    12.51      0.0000 0.014      11.89 0.001   111.84     2.55      0.0000 0.014     1.12
            230       10.26 0.001    11.14      0.0000 0.014      10.26 0.001  4336.90    29.17      0.0000 0.014     0.15
            231        0.78 0.001    53.95      0.0000 0.014       0.78 0.001    53.95     1.57      0.0000 0.014     0.07
            232       44.53 0.000   153.55      0.0000 0.014      44.53 0.000   153.55     3.15      0.0000 0.014     5.72
            233       32.88 0.001    79.78      0.0000 0.014      32.88 0.001  4341.98    29.20      0.0000 0.014     0.49
            234        1.91 0.001     3.35      0.0000 0.014       1.91 0.001   326.92     5.21      0.0000 0.014     0.09
            235       32.12 0.001    58.70      0.0000 0.014      32.12 0.001   355.42     5.50      0.0000 0.014     1.96
            236        5.86 0.002    78.27      0.0000 0.014       5.86 0.002    78.27     2.01      0.0000 0.014     0.37
            237      150.97 0.000   116.04      0.0000 0.014     150.97 0.000  4391.28    29.42      0.0000 0.014    10.04
            238        9.15 0.000    19.93      0.0000 0.014       9.15 0.000  2508.30    20.25      0.0000 0.014     0.53
            239       98.59 0.000   195.44      0.0000 0.014      98.59 0.000  3599.56    25.77      0.0000 0.014     7.16
            240        6.34 0.000    92.51      0.0000 0.014       6.34 0.000  1912.41    16.90      0.0000 0.014     0.34
            241       69.09 0.000   154.24      0.0000 0.014      69.09 0.000  2488.82    20.15      0.0000 0.014     2.21
            242       24.92 0.001    60.46      0.0000 0.014      24.92 0.001   147.16     3.06      0.0000 0.014     1.55
            243       46.45 0.000   119.82      0.0000 0.014      46.45 0.000  2533.55    20.39      0.0000 0.014     2.14
            244       57.69 0.001    96.14      0.0000 0.014      57.69 0.001  2852.89    22.07      0.0000 0.014     1.04
            245       93.24 0.000   212.75      0.0000 0.014      93.24 0.000  2946.58    22.55      0.0000 0.014     4.43
            246       14.40 0.002    53.83      0.0000 0.014      14.40 0.002   170.11     3.37      0.0000 0.014     0.68
            247      116.17 0.000   135.32      0.0000 0.014     116.17 0.000   843.33     9.79      0.0000 0.014    12.03
            248       65.70 0.000   129.94      0.0000 0.014      65.70 0.000   215.77     3.95      0.0000 0.014     5.95
            249       56.77 0.001    74.16      0.0000 0.014      56.77 0.001   177.60     3.47      0.0000 0.014     4.87
            250       43.70 0.000    78.63      0.0000 0.014      43.70 0.000   191.46     3.64      0.0000 0.014     6.22
            251        9.53 0.001     8.82      0.0000 0.014       9.53 0.001  3984.59    27.57      0.0000 0.014     0.15
            252        4.98 0.001    11.53      0.0000 0.014       4.98 0.001  3626.01    25.89      0.0000 0.014     0.08
            253      138.21 0.002   140.05      0.0000 0.014     138.21 0.002  1201.61    12.40      0.0000 0.014     2.82
            254       11.08 0.001    19.62      0.0000 0.014      11.08 0.001  1601.82    15.02      0.0000 0.014     0.29
            255      104.53 0.001   205.42      0.0000 0.014     104.53 0.001  1601.19    15.02      0.0000 0.014     2.94
            256       87.84 0.002   161.45      0.0000 0.014      87.84 0.002  1181.45    12.26      0.0000 0.014     1.85
            257      119.11 0.002   150.46      0.0000 0.014     119.11 0.002  1155.56    12.08      0.0000 0.014     2.43
            258       58.50 0.002    86.95      0.0000 0.014      58.50 0.002  1357.34    13.45      0.0000 0.014     1.18
            259       24.76 0.000    49.16      0.0000 0.014      24.76 0.000  3056.16    23.10      0.0000 0.014     0.97
            260        5.50 0.000    32.53      0.0000 0.014       5.50 0.000  3616.92    25.85      0.0000 0.014     0.15
            261       29.84 0.000    72.39      0.0000 0.014      29.84 0.000  3554.17    25.55      0.0000 0.014     1.09
            262        4.80 0.001    15.65      0.0000 0.014       4.80 0.001  2140.44    18.22      0.0000 0.014     0.10
            263       14.43 0.000    30.69      0.0000 0.014      14.43 0.000  2103.28    18.01      0.0000 0.014     0.56
            264       85.87 0.000   122.84      0.0000 0.014      85.87 0.000  2428.98    19.82      0.0000 0.014     4.16
            265        1.55 0.001     2.58      0.0000 0.014       1.55 0.001  2429.00    19.82      0.0000 0.014     0.03
            266       77.44 0.000   181.75      0.0000 0.014      77.44 0.000  2507.83    20.25      0.0000 0.014     3.95
            267       10.49 0.000    36.90      0.0000 0.014      10.49 0.000  2368.50    19.49      0.0000 0.014     0.38
            268        3.83 0.001     6.09      0.0000 0.014       3.83 0.001   290.10     4.81      0.0000 0.014     0.19
            269       12.84 0.007    35.32      0.0000 0.014      12.84 0.007   127.92     2.79      0.0000 0.014     0.36
            270       63.81 0.002   113.01      0.0000 0.014      63.81 0.002   231.00     4.13      0.0000 0.014     2.54
            271       53.00 0.001    71.66      0.0000 0.014      53.00 0.001   200.19     3.75      0.0000 0.014     3.27
            272       37.66 0.002   144.14      0.0000 0.014      37.66 0.002   289.82     4.80      0.0000 0.014     1.45
            273       34.17 0.001    75.91      0.0000 0.014      34.17 0.001   409.56     6.05      0.0000 0.014     1.83
            274      151.93 0.001   204.21      0.0000 0.014     151.93 0.001   266.20     4.54      0.0000 0.014     6.79
            275       47.57 0.001    70.29      0.0000 0.014      47.57 0.001   201.24     3.77      0.0000 0.014     2.37
            276      320.10 0.001   352.81      0.0000 0.014     320.10 0.001   474.24     6.67      0.0000 0.014    11.90
            277       39.52 0.005    98.26      0.0000 0.014      39.52 0.005   231.53     4.14      0.0000 0.014     1.03
            278       19.39 0.022    33.09      0.0000 0.014      19.39 0.022    67.43     1.82      0.0000 0.014     0.40
            279       16.58 0.036    17.38      0.0000 0.014      16.58 0.036    36.71     1.21      0.0000 0.014     0.35
            280      120.18 0.001   199.52      0.0000 0.014     120.18 0.001  1433.23    13.94      0.0000 0.014     2.69
            281       31.61 0.000    54.68      0.0000 0.014      31.61 0.000  1621.98    15.14      0.0000 0.014     1.68
            282      169.52 0.001   191.10      0.0000 0.014     169.52 0.001  1256.59    12.77      0.0000 0.014     3.70
            283       14.37 0.002    31.94      0.0000 0.014      14.37 0.002  1358.91    13.46      0.0000 0.014     0.29
            284       46.46 0.000   134.12      0.0000 0.014      46.46 0.000  3625.86    25.89      0.0000 0.014     2.09
            285       44.92 0.000    76.50      0.0000 0.014      44.92 0.000   487.09     6.79      0.0000 0.014     3.21
            286        1.64 0.001    11.77      0.0000 0.014       1.64 0.001  1435.96    13.96      0.0000 0.014     0.04
            287       45.10 0.000    78.54      0.0000 0.014      45.10 0.000  3603.24    25.78      0.0000 0.014     2.21
            288       63.77 0.000    75.82      0.0000 0.014      63.77 0.000  4345.04    29.21      0.0000 0.014     1.80
            289      164.28 0.001   173.06      0.0000 0.014     164.28 0.001  4019.84    27.74      0.0000 0.014     2.54
