1
    SWAT May 6 2015    VER 2015/Rev 637                                                                  0/ 0/   0      0: 0: 0

    General Input/Output section (file.cio):                                        
    5/31/2016 12:00:00 AM ARCGIS-SWAT interface AV                                  
                                                                                    
         Number of years in run:   29
         Area of watershed:   770315.688 km2
1
    SWAT May 6 2015    VER 2015/Rev 637                                             

    General Input/Output section (file.cio):                                        
    5/31/2016 12:00:00 AM ARCGIS-SWAT interface AV                                  
                                                                                    
Annual Summary for Watershed in year    1 of simulation

UNIT                                    PERCO    TILE                           WATER     SED     NO3     NO3     NO3     NO3        N       P       P
TIME     PREC    SURQ    LATQ     GWQ    LATE       Q     SW       ET     PET   YIELD   YIELD    SURQ    LATQ    PERC    CROP  ORGANIC SOLUBLE ORGANIC TILENO3
         (mm)    (mm)    (mm)    (mm)    (mm)    (mm)    (mm)    (mm)    (mm)    (mm)    (mm)   ------------------(kg nutrient/ha)-------------------- (kg/ha)
    1    5.63    0.00    0.14    0.23    1.21    0.00   53.59   18.48  105.74    0.38    0.00    0.00    0.01    0.30    0.00     0.00    0.00    0.00    0.00
    2   10.96    0.12    0.27    0.68    2.66    0.00   49.82   12.62  127.90    1.05    0.12    0.00    0.01    0.31    0.16     0.22    0.00    0.03    0.00
    3   10.55    0.31    0.34    1.92    7.67    0.00   23.40   35.92  169.01    2.61    0.56    0.00    0.02    0.22    4.97     0.49    0.00    0.06    0.00
    4   62.70    0.42    0.75    5.31   14.84    0.00   30.34   52.95  143.32    6.55    0.08    0.00    0.01    0.57    6.42     0.21    0.00    0.03    0.00
    5  179.92   18.40    2.69   11.28   65.82    0.00   59.04   67.94  119.70   29.51    1.41    0.01    0.03    9.28    4.75     3.34    0.00    0.41    0.00
    6  261.34   41.60    5.76   38.41  132.25    0.00   72.49   68.50   93.58   78.07    1.65    0.00    0.07    8.10    2.27     2.65    0.01    0.33    0.00
    7  174.60   13.36    7.07   83.62   88.82    0.00   71.41   74.74  110.46  114.30    0.63    0.00    0.06    2.58    2.28     0.80    0.00    0.10    0.00
    8  241.97   43.39    8.44  100.61  143.99    0.00   64.77   70.20  103.37  154.81    1.18    0.00    0.03    1.60    2.04     1.73    0.01    0.22    0.00
    9  199.03   31.52    7.26  101.58   96.33    0.00   71.64   62.88   93.98  139.05    0.43    0.00    0.02    0.54    1.39     0.87    0.01    0.13    0.00
   10   58.45    6.13    4.80   94.66   38.67    0.00   42.04   55.81  111.45  117.12    0.42    0.00    0.01    0.18    0.85     0.24    0.00    0.03    0.00
   11   14.73    0.38    1.02   61.55   13.73    0.00   30.14   22.44  104.57   67.71    0.00    0.00    0.00    0.02    0.25     0.01    0.00    0.00    0.00
   12    6.76    0.02    0.66   31.49    1.74    0.00   24.79    9.20  100.25   35.61    0.01    0.00    0.00    0.00    0.51     0.00    0.00    0.00    0.00

 1979 1226.64  155.67   39.20  531.34  607.71    0.00   24.79  551.68 1383.33  746.77    6.49    0.02    0.27   23.72   25.90    10.56    0.03    1.33    0.00
1
    SWAT May 6 2015    VER 2015/Rev 637                                             

    General Input/Output section (file.cio):                                        
    5/31/2016 12:00:00 AM ARCGIS-SWAT interface AV                                  
                                                                                    
Annual Summary for Watershed in year    2 of simulation

UNIT                                    PERCO    TILE                           WATER     SED     NO3     NO3     NO3     NO3        N       P       P
TIME     PREC    SURQ    LATQ     GWQ    LATE       Q     SW       ET     PET   YIELD   YIELD    SURQ    LATQ    PERC    CROP  ORGANIC SOLUBLE ORGANIC TILENO3
         (mm)    (mm)    (mm)    (mm)    (mm)    (mm)    (mm)    (mm)    (mm)    (mm)    (mm)   ------------------(kg nutrient/ha)-------------------- (kg/ha)
    1    2.36    0.01    0.19    9.51    0.73    0.00   24.05    2.69  123.31   12.27    0.00    0.00    0.00    0.00    0.00     0.00    0.00    0.00    0.00
    2    7.97    0.16    0.16    3.82    3.57    0.00   24.69    6.75  119.16    5.93    0.07    0.00    0.00    0.01    0.11     0.01    0.00    0.00    0.00
    3   23.05    0.35    0.34    2.66    0.93    0.00   15.90   29.70  174.26    4.80    0.12    0.00    0.00    0.01    3.04     0.04    0.00    0.00    0.00
    4   44.44    1.06    0.65    1.56    1.45    0.00   16.24   43.70  137.39    4.15    0.11    0.00    0.00    0.04    3.39     0.14    0.00    0.02    0.00
    5  151.27    8.84    1.88    2.93   35.08    0.00   55.40   67.72  120.15   13.29    0.40    0.00    0.00    0.52    2.64     0.61    0.00    0.09    0.00
    6  240.51   23.36    6.57   23.55  123.22    0.00   71.41   70.22   98.23   50.62    0.75    0.00    0.01    0.81    2.01     1.02    0.01    0.15    0.00
    7  225.63   31.40    8.71   65.50  121.27    0.00   70.87   70.29  105.38  104.68    0.79    0.00    0.01    0.46    2.00     1.01    0.01    0.15    0.00
    8  225.71   22.02    9.82   94.20  122.21    0.00   76.71   72.29  107.43  128.48    0.42    0.00    0.01    0.19    1.57     0.47    0.01    0.07    0.00
    9  245.35   34.11    8.13  117.38  155.52    0.00   73.67   59.35   85.52  167.16    0.61    0.00    0.00    0.12    1.20     0.77    0.01    0.12    0.00
   10  121.43   10.34    4.98  123.40   62.85    0.00   68.91   51.73   86.26  145.90    0.20    0.00    0.00    0.07    0.95     0.25    0.00    0.04    0.00
   11   29.72    2.47    1.48   87.45   30.07    0.00   53.68   28.34   80.35   97.34    0.01    0.00    0.00    0.04    0.37     0.04    0.00    0.01    0.00
   12    9.95    0.03    0.67   53.61    2.22    0.00   48.67   12.53   85.42   58.72    0.00    0.00    0.00    0.01    0.63     0.00    0.00    0.00    0.00

 1980 1327.40  134.15   43.57  585.56  659.10    0.00   48.67  515.29 1322.87  793.33    3.49    0.02    0.04    2.30   17.91     4.35    0.05    0.64    0.00
1
    SWAT May 6 2015    VER 2015/Rev 637                                             

    General Input/Output section (file.cio):                                        
    5/31/2016 12:00:00 AM ARCGIS-SWAT interface AV                                  
                                                                                    
Annual Summary for Watershed in year    3 of simulation

UNIT                                    PERCO    TILE                           WATER     SED     NO3     NO3     NO3     NO3        N       P       P
TIME     PREC    SURQ    LATQ     GWQ    LATE       Q     SW       ET     PET   YIELD   YIELD    SURQ    LATQ    PERC    CROP  ORGANIC SOLUBLE ORGANIC TILENO3
         (mm)    (mm)    (mm)    (mm)    (mm)    (mm)    (mm)    (mm)    (mm)    (mm)    (mm)   ------------------(kg nutrient/ha)-------------------- (kg/ha)
    1    7.46    0.02    0.41   21.04    1.91    0.00   47.99    6.27   96.40   24.75    0.01    0.00    0.00    0.02    0.00     0.00    0.00    0.00    0.00
    2   12.09    0.13    0.41    5.55    3.92    0.00   49.36    8.81  120.78    8.34    0.04    0.00    0.00    0.02    0.06     0.01    0.00    0.00    0.00
    3   23.20    0.38    0.56    3.63    4.77    0.00   30.40   39.78  162.54    6.46    0.07    0.00    0.00    0.02    3.80     0.03    0.00    0.00    0.00
    4   72.68    1.90    0.99    3.99   10.02    0.00   33.05   63.90  124.95    7.81    0.08    0.00    0.00    0.06    3.65     0.09    0.00    0.01    0.00
    5  184.59   17.20    4.12    9.52   62.53    0.00   57.60   76.11  120.08   29.66    0.62    0.00    0.00    0.35    1.75     0.66    0.01    0.11    0.00
    6  229.57   29.95    7.06   40.45  119.68    0.00   63.09   71.96  103.36   77.27    0.58    0.00    0.00    0.23    1.83     0.62    0.02    0.10    0.00
    7  261.23   42.37    9.21   82.21  133.11    0.00   69.53   73.83  103.03  134.80    1.01    0.00    0.00    0.20    1.51     1.10    0.02    0.17    0.00
    8  232.97   28.54    8.68  110.00  133.08    0.00   72.43   69.28   99.01  151.94    0.44    0.00    0.00    0.08    1.36     0.48    0.01    0.08    0.00
    9  143.47   14.24    6.05  108.18   70.98    0.00   61.03   71.70  109.14  134.91    0.19    0.00    0.00    0.04    1.15     0.28    0.01    0.04    0.00
   10  129.70   15.38    3.62   93.82   77.05    0.00   62.14   50.20   87.27  117.20    0.20    0.00    0.00    0.06    0.97     0.22    0.01    0.05    0.00
   11   71.19    6.17    2.94   72.85   40.47    0.00   58.14   29.42   70.74   87.75    0.15    0.00    0.00    0.08    0.45     0.13    0.00    0.03    0.00
   12    6.80    0.00    1.09   49.48    1.74    0.00   49.94   12.53   76.71   54.94    0.00    0.00    0.00    0.00    0.73     0.00    0.00    0.00    0.00

 1981 1374.95  156.28   45.14  600.72  659.27    0.00   49.94  573.77 1274.01  835.84    3.39    0.02    0.02    1.16   17.26     3.62    0.07    0.59    0.00
1
    SWAT May 6 2015    VER 2015/Rev 637                                             

    General Input/Output section (file.cio):                                        
    5/31/2016 12:00:00 AM ARCGIS-SWAT interface AV                                  
                                                                                    
Annual Summary for Watershed in year    4 of simulation

UNIT                                    PERCO    TILE                           WATER     SED     NO3     NO3     NO3     NO3        N       P       P
TIME     PREC    SURQ    LATQ     GWQ    LATE       Q     SW       ET     PET   YIELD   YIELD    SURQ    LATQ    PERC    CROP  ORGANIC SOLUBLE ORGANIC TILENO3
         (mm)    (mm)    (mm)    (mm)    (mm)    (mm)    (mm)    (mm)    (mm)    (mm)    (mm)   ------------------(kg nutrient/ha)-------------------- (kg/ha)
    1    3.16    0.00    0.32   21.00    0.76    0.00   47.77    5.17  108.11   24.42    0.00    0.00    0.00    0.00    0.00     0.00    0.00    0.00    0.00
    2   10.96    0.16    0.36    5.55    4.62    0.00   48.03    8.70  112.40    8.19    0.03    0.00    0.00    0.02    0.06     0.01    0.00    0.00    0.00
    3   26.85    0.42    0.28    2.98    4.05    0.00   34.80   38.51  170.75    5.36    0.04    0.00    0.00    0.02    3.92     0.03    0.00    0.00    0.00
    4   79.34    2.00    1.44    4.59   14.79    0.00   29.26   72.74  124.15    9.34    0.10    0.00    0.00    0.11    3.83     0.09    0.00    0.01    0.00
    5  100.37    2.68    1.46    8.28   13.36    0.00   38.24   77.14  138.95   13.49    0.12    0.00    0.00    0.15    1.61     0.17    0.00    0.03    0.00
    6  198.97   19.31    5.36   16.72   78.10    0.00   61.70   72.89  109.02   38.07    0.47    0.00    0.00    0.22    1.63     0.48    0.01    0.08    0.00
    7  168.60   11.13    7.00   44.70   78.51    0.00   61.13   79.43  115.18   67.23    0.34    0.00    0.00    0.14    1.61     0.34    0.01    0.05    0.00
    8  232.22   25.61    8.56   68.50  128.58    0.00   63.97   74.38  105.97  103.50    0.56    0.00    0.00    0.09    1.37     0.57    0.01    0.10    0.00
    9  262.60   42.13    7.10   94.56  148.15    0.00   75.83   59.30   82.10  143.51    0.48    0.00    0.00    0.10    1.15     0.85    0.02    0.15    0.00
   10   80.93    3.27    4.46  106.12   37.63    0.00   61.35   60.47  100.91  123.08    0.04    0.00    0.00    0.04    0.90     0.10    0.00    0.02    0.00
   11   39.81    0.60    1.57   71.23   16.92    0.00   56.01   32.70   83.01   77.93    0.01    0.00    0.00    0.02    0.38     0.02    0.00    0.00    0.00
   12    4.09    0.03    0.61   40.51    0.38    0.00   45.87   13.54   89.73   44.63    0.00    0.00    0.00    0.00    0.28     0.00    0.00    0.00    0.00

 1982 1207.90  107.33   38.53  484.74  525.83    0.00   45.87  594.96 1340.29  658.76    2.20    0.01    0.02    0.91   16.75     2.66    0.05    0.46    0.00
1
    SWAT May 6 2015    VER 2015/Rev 637                                             

    General Input/Output section (file.cio):                                        
    5/31/2016 12:00:00 AM ARCGIS-SWAT interface AV                                  
                                                                                    
Annual Summary for Watershed in year    5 of simulation

UNIT                                    PERCO    TILE                           WATER     SED     NO3     NO3     NO3     NO3        N       P       P
TIME     PREC    SURQ    LATQ     GWQ    LATE       Q     SW       ET     PET   YIELD   YIELD    SURQ    LATQ    PERC    CROP  ORGANIC SOLUBLE ORGANIC TILENO3
         (mm)    (mm)    (mm)    (mm)    (mm)    (mm)    (mm)    (mm)    (mm)    (mm)    (mm)   ------------------(kg nutrient/ha)-------------------- (kg/ha)
    1   12.15    0.05    0.40   12.86    1.73    0.00   48.31    7.69   94.86   15.92    0.01    0.00    0.00    0.02    0.00     0.00    0.00    0.00    0.00
    2   10.04    0.13    0.40    3.21    4.04    0.00   46.70    8.47  119.13    5.52    0.02    0.00    0.00    0.03    0.11     0.01    0.00    0.00    0.00
    3   14.50    0.36    1.06    3.43    6.50    0.00   23.18   32.80  165.97    6.46    0.10    0.00    0.01    0.07    3.07     0.02    0.00    0.00    0.00
    4   27.54    0.42    0.65    4.24    2.94    0.00   19.14   31.65  168.61    6.36    0.06    0.00    0.00    0.01    2.01     0.03    0.00    0.00    0.00
    5  102.43    2.54    1.27    3.47   11.62    0.00   40.77   67.38  135.70    7.97    0.14    0.00    0.00    0.21    2.90     0.19    0.00    0.03    0.00
    6  181.34   26.36    3.28    8.49   57.24    0.00   63.86   71.01  118.43   31.35    0.66    0.00    0.00    0.48    1.96     1.01    0.01    0.16    0.00
    7  170.87   13.77    5.08   29.47   73.48    0.00   70.02   78.29  124.02   53.93    0.42    0.00    0.00    0.13    1.60     0.45    0.01    0.08    0.00
    8  260.39   33.19    8.66   65.66  143.71    0.00   73.23   76.46  108.66  108.09    0.77    0.00    0.00    0.11    1.30     0.93    0.01    0.15    0.00
    9  180.33   15.03    7.46   92.24  102.99    0.00   72.92   57.65   84.87  117.92    0.26    0.00    0.00    0.06    1.12     0.29    0.01    0.06    0.00
   10  174.38   26.79    4.87  104.25  101.59    0.00   71.14   47.93   75.92  139.98    0.33    0.00    0.00    0.08    0.84     0.47    0.01    0.09    0.00
   11   51.79    4.71    3.44   87.77   37.66    0.00   56.58   29.10   81.73  102.78    0.20    0.00    0.00    0.06    0.37     0.12    0.00    0.03    0.00
   12   12.58    0.94    0.99   57.99    2.30    0.00   52.55   12.17   88.38   63.85    0.09    0.00    0.00    0.01    0.34     0.03    0.00    0.01    0.00

 1983 1198.34  124.29   37.56  473.08  545.80    0.00   52.55  520.61 1366.27  660.12    3.06    0.01    0.03    1.27   15.63     3.55    0.06    0.62    0.00
1
    SWAT May 6 2015    VER 2015/Rev 637                                             

    General Input/Output section (file.cio):                                        
    5/31/2016 12:00:00 AM ARCGIS-SWAT interface AV                                  
                                                                                    
Annual Summary for Watershed in year    6 of simulation

UNIT                                    PERCO    TILE                           WATER     SED     NO3     NO3     NO3     NO3        N       P       P
TIME     PREC    SURQ    LATQ     GWQ    LATE       Q     SW       ET     PET   YIELD   YIELD    SURQ    LATQ    PERC    CROP  ORGANIC SOLUBLE ORGANIC TILENO3
         (mm)    (mm)    (mm)    (mm)    (mm)    (mm)    (mm)    (mm)    (mm)    (mm)    (mm)   ------------------(kg nutrient/ha)-------------------- (kg/ha)
    1    3.29    0.27    0.72   25.70    6.52    0.00   49.65    5.53   90.73   30.06    0.03    0.00    0.00    0.01    0.00     0.01    0.00    0.00    0.00
    2    8.89    0.12    0.91   11.27   18.05    0.00   49.05    8.49  123.72   14.57    0.02    0.00    0.00    0.01    0.09     0.01    0.00    0.00    0.00
    3   18.78    0.44    1.12   12.10   22.74    0.00   32.75   34.96  165.92   15.52    0.03    0.00    0.00    0.01    3.89     0.02    0.00    0.00    0.00
    4   74.27    2.30    2.72   18.68   36.77    0.00   37.35   60.23  143.61   24.78    0.10    0.00    0.00    0.07    3.04     0.10    0.00    0.02    0.00
    5  135.80    3.12    3.02   24.14   32.46    0.00   54.51   84.71  132.82   31.85    0.07    0.00    0.00    0.20    1.69     0.11    0.00    0.02    0.00
    6  190.16   17.59    5.75   31.75   79.91    0.00   66.38   74.51  108.63   54.27    0.63    0.00    0.00    0.18    1.55     0.57    0.01    0.10    0.00
    7  208.28   24.27    9.33   59.94  103.53    0.00   64.73   79.87  116.50   93.67    0.64    0.00    0.00    0.14    1.36     0.55    0.01    0.09    0.00
    8  285.77   49.53    8.52   89.73  176.35    0.00   69.61   65.14   96.99  146.63    0.75    0.00    0.00    0.08    1.20     0.80    0.02    0.14    0.00
    9  171.55   19.07    6.87  115.97   84.95    0.00   67.47   66.70  101.56  151.97    0.31    0.00    0.00    0.05    1.04     0.38    0.01    0.07    0.00
   10  133.86   14.08    4.96  104.21   80.77    0.00   55.63   52.18   86.88  129.16    0.19    0.00    0.00    0.06    0.89     0.18    0.01    0.04    0.00
   11   24.76    1.75    1.70   77.99   22.15    0.00   45.96   28.26   82.47   86.97    0.02    0.00    0.00    0.01    0.35     0.02    0.00    0.00    0.00
   12    4.67    0.06    0.46   46.39    0.67    0.00   38.16   11.63   85.79   50.94    0.01    0.00    0.00    0.00    0.60     0.00    0.00    0.00    0.00

 1984 1260.08  132.61   46.08  617.85  664.88    0.00   38.16  572.23 1335.62  830.40    2.80    0.01    0.02    0.83   15.69     2.76    0.07    0.49    0.00
1
    SWAT May 6 2015    VER 2015/Rev 637                                             

    General Input/Output section (file.cio):                                        
    5/31/2016 12:00:00 AM ARCGIS-SWAT interface AV                                  
                                                                                    
Annual Summary for Watershed in year    7 of simulation

UNIT                                    PERCO    TILE                           WATER     SED     NO3     NO3     NO3     NO3        N       P       P
TIME     PREC    SURQ    LATQ     GWQ    LATE       Q     SW       ET     PET   YIELD   YIELD    SURQ    LATQ    PERC    CROP  ORGANIC SOLUBLE ORGANIC TILENO3
         (mm)    (mm)    (mm)    (mm)    (mm)    (mm)    (mm)    (mm)    (mm)    (mm)    (mm)   ------------------(kg nutrient/ha)-------------------- (kg/ha)
    1    8.12    0.09    0.20   15.75    0.97    0.00   40.59    5.05   98.84   19.03    0.00    0.00    0.00    0.01    0.00     0.01    0.00    0.00    0.00
    2   15.51    0.05    0.30    4.21    3.38    0.00   43.92   11.23   97.91    6.64    0.01    0.00    0.00    0.02    0.12     0.00    0.00    0.00    0.00
    3   16.10    0.17    0.27    3.28    3.94    0.00   28.18   31.38  156.45    5.48    0.04    0.00    0.00    0.01    4.28     0.02    0.00    0.00    0.00
    4   96.60    3.24    0.93    3.44   15.73    0.00   52.01   58.12  130.91    7.39    0.12    0.00    0.00    0.14    3.02     0.11    0.00    0.02    0.00
    5  137.15    5.26    2.45    9.91   37.96    0.00   64.02   79.84  126.95   18.97    0.15    0.00    0.00    0.27    1.70     0.21    0.00    0.04    0.00
    6  197.72   26.64    5.75   28.00   96.05    0.00   68.03   67.32   97.91   57.91    0.41    0.00    0.00    0.17    1.52     0.52    0.02    0.09    0.00
    7  206.32   15.51    7.92   63.32  109.12    0.00   71.54   78.34  113.37   90.22    0.39    0.00    0.00    0.13    1.43     0.39    0.01    0.07    0.00
    8  218.06   23.86    8.54   90.23  134.87    0.00   66.05   72.31  106.08  125.20    0.43    0.00    0.00    0.05    1.26     0.48    0.01    0.09    0.00
    9  193.36   18.29    7.32  104.16  102.99    0.00   69.12   63.49   92.44  134.60    0.24    0.00    0.00    0.06    1.07     0.35    0.01    0.07    0.00
   10   99.66    7.97    3.58   96.51   45.65    0.00   65.03   55.80   92.18  113.29    0.11    0.00    0.00    0.04    0.90     0.16    0.00    0.03    0.00
   11   55.46    5.99    2.51   67.11   34.52    0.00   59.39   30.51   80.21   79.73    0.18    0.00    0.00    0.03    0.44     0.12    0.00    0.03    0.00
   12    4.61    0.04    0.94   43.98    1.15    0.00   47.22   15.28   85.06   49.29    0.01    0.00    0.00    0.00    0.69     0.00    0.00    0.00    0.00

 1985 1248.68  107.13   40.72  529.90  586.31    0.00   47.22  568.67 1278.32  707.76    2.08    0.01    0.02    0.93   16.43     2.37    0.06    0.44    0.00
1
    SWAT May 6 2015    VER 2015/Rev 637                                             

    General Input/Output section (file.cio):                                        
    5/31/2016 12:00:00 AM ARCGIS-SWAT interface AV                                  
                                                                                    
Annual Summary for Watershed in year    8 of simulation

UNIT                                    PERCO    TILE                           WATER     SED     NO3     NO3     NO3     NO3        N       P       P
TIME     PREC    SURQ    LATQ     GWQ    LATE       Q     SW       ET     PET   YIELD   YIELD    SURQ    LATQ    PERC    CROP  ORGANIC SOLUBLE ORGANIC TILENO3
         (mm)    (mm)    (mm)    (mm)    (mm)    (mm)    (mm)    (mm)    (mm)    (mm)    (mm)   ------------------(kg nutrient/ha)-------------------- (kg/ha)
    1    1.69    0.01    0.25   16.66    0.78    0.00   45.33    3.58  107.36   19.75    0.00    0.00    0.00    0.00    0.00     0.00    0.00    0.00    0.00
    2    3.36    0.01    0.18    4.51    3.82    0.00   44.29    3.98  123.92    6.65    0.00    0.00    0.00    0.00    0.06     0.00    0.00    0.00    0.00
    3    9.89    0.12    0.21    2.83    2.78    0.00   25.54   28.89  171.17    4.78    0.02    0.00    0.00    0.00    3.19     0.02    0.00    0.00    0.00
    4   75.86    2.30    0.96    3.14   11.11    0.00   32.58   60.51  137.43    6.56    0.13    0.00    0.00    0.06    4.04     0.10    0.00    0.02    0.00
    5  185.78   17.42    3.51   11.57   70.45    0.00   54.82   72.94  117.89   31.66    0.39    0.00    0.00    0.35    1.87     0.55    0.01    0.10    0.00
    6  163.63   15.06    4.88   36.84   73.22    0.00   56.08   72.12  117.44   58.52    0.31    0.00    0.00    0.09    1.58     0.33    0.01    0.06    0.00
    7  220.92   26.56    7.60   59.41  115.99    0.00   61.18   72.33  113.59   93.04    0.65    0.00    0.00    0.10    1.34     0.55    0.02    0.10    0.00
    8  257.73   35.03    7.76   90.31  139.22    0.00   68.86   72.91  106.97  134.23    0.44    0.00    0.00    0.09    1.23     0.57    0.02    0.10    0.00
    9  163.58   14.27    5.80  106.26   84.96    0.00   64.71   66.59   99.98  133.64    0.22    0.00    0.00    0.04    1.06     0.29    0.01    0.06    0.00
   10  124.97   14.80    4.48   94.99   59.18    0.00   64.82   52.56   85.12  119.57    0.37    0.00    0.00    0.05    0.88     0.30    0.01    0.07    0.00
   11   28.00    1.17    1.66   66.59   21.81    0.00   52.95   28.77   78.09   74.68    0.03    0.00    0.00    0.02    0.42     0.03    0.00    0.01    0.00
   12   19.86    1.85    0.66   40.88    4.70    0.00   49.93   15.69   78.52   46.56    0.11    0.00    0.00    0.02    0.81     0.04    0.00    0.01    0.00

 1986 1255.27  128.59   37.95  533.99  588.02    0.00   49.93  550.85 1337.47  729.63    2.67    0.01    0.02    0.83   16.49     2.78    0.08    0.51    0.00
1
    SWAT May 6 2015    VER 2015/Rev 637                                             

    General Input/Output section (file.cio):                                        
    5/31/2016 12:00:00 AM ARCGIS-SWAT interface AV                                  
                                                                                    
Annual Summary for Watershed in year    9 of simulation

UNIT                                    PERCO    TILE                           WATER     SED     NO3     NO3     NO3     NO3        N       P       P
TIME     PREC    SURQ    LATQ     GWQ    LATE       Q     SW       ET     PET   YIELD   YIELD    SURQ    LATQ    PERC    CROP  ORGANIC SOLUBLE ORGANIC TILENO3
         (mm)    (mm)    (mm)    (mm)    (mm)    (mm)    (mm)    (mm)    (mm)    (mm)    (mm)   ------------------(kg nutrient/ha)-------------------- (kg/ha)
    1    6.53    0.06    0.51   16.89    2.58    0.00   47.39    6.96  109.01   20.75    0.00    0.00    0.00    0.02    0.00     0.01    0.00    0.00    0.00
    2   10.94    0.03    0.47    5.01    3.72    0.00   48.08    8.47  117.46    7.45    0.00    0.00    0.00    0.01    0.07     0.00    0.00    0.00    0.00
    3   24.78    0.42    0.52    3.80    5.05    0.00   29.43   41.69  158.91    6.29    0.04    0.00    0.01    0.07    4.38     0.03    0.00    0.00    0.00
    4   51.91    0.62    0.75    3.54    7.95    0.00   23.79   54.37  142.25    6.12    0.05    0.00    0.00    0.03    2.72     0.04    0.00    0.01    0.00
    5   82.93    0.91    1.07    5.02    8.22    0.00   33.33   65.21  133.20    8.02    0.04    0.00    0.00    0.10    1.75     0.07    0.00    0.01    0.00
    6  180.34   14.15    3.81   12.46   63.48    0.00   59.12   72.84  110.88   28.95    0.33    0.00    0.00    0.24    1.78     0.40    0.01    0.07    0.00
    7  191.19   22.25    6.03   40.59   97.31    0.00   63.91   68.01  100.42   68.74    0.48    0.00    0.00    0.09    1.38     0.40    0.01    0.07    0.00
    8  233.16   47.52    8.05   65.82  113.13    0.00   64.90   75.45  109.46  118.25    0.93    0.00    0.00    0.07    1.29     0.98    0.03    0.18    0.00
    9  227.66   25.26    7.59   88.86  121.69    0.00   71.69   68.92   94.07  129.94    0.37    0.00    0.00    0.08    1.09     0.57    0.02    0.11    0.00
   10   71.37    2.30    3.75   92.87   29.01    0.00   57.14   60.37  105.35  105.37    0.03    0.00    0.00    0.02    0.83     0.05    0.00    0.01    0.00
   11   69.53    5.50    2.07   62.43   34.96    0.00   56.77   33.46   79.36   72.88    0.13    0.00    0.00    0.10    0.35     0.11    0.00    0.03    0.00
   12    3.17    0.00    0.59   40.15    0.71    0.00   45.27   13.38   98.05   44.85    0.00    0.00    0.00    0.00    0.45     0.00    0.00    0.00    0.00

 1987 1153.52  119.01   35.20  437.46  487.80    0.00   45.27  569.13 1358.41  617.61    2.39    0.01    0.02    0.83   16.08     2.66    0.08    0.50    0.00
1
    SWAT May 6 2015    VER 2015/Rev 637                                             

    General Input/Output section (file.cio):                                        
    5/31/2016 12:00:00 AM ARCGIS-SWAT interface AV                                  
                                                                                    
Annual Summary for Watershed in year   10 of simulation

UNIT                                    PERCO    TILE                           WATER     SED     NO3     NO3     NO3     NO3        N       P       P
TIME     PREC    SURQ    LATQ     GWQ    LATE       Q     SW       ET     PET   YIELD   YIELD    SURQ    LATQ    PERC    CROP  ORGANIC SOLUBLE ORGANIC TILENO3
         (mm)    (mm)    (mm)    (mm)    (mm)    (mm)    (mm)    (mm)    (mm)    (mm)    (mm)   ------------------(kg nutrient/ha)-------------------- (kg/ha)
    1    1.68    0.00    0.18   15.03    0.73    0.00   42.84    4.03  110.73   17.73    0.00    0.00    0.00    0.00    0.00     0.00    0.00    0.00    0.00
    2   17.67    0.32    0.36    3.83    3.79    0.00   46.91   11.02  115.94    6.23    0.02    0.00    0.00    0.03    0.28     0.01    0.00    0.00    0.00
    3   11.96    0.16    0.53    2.68    4.40    0.00   22.93   34.38  151.04    4.89    0.04    0.00    0.00    0.01    3.93     0.03    0.00    0.00    0.00
    4   76.54    2.11    0.74    3.33    9.64    0.00   41.31   50.87  116.00    6.36    0.13    0.00    0.00    0.08    2.82     0.10    0.00    0.02    0.00
    5  158.78   10.37    3.39   10.54   50.41    0.00   59.87   77.74  125.02   24.65    0.41    0.00    0.00    0.36    1.62     0.49    0.01    0.09    0.00
    6  170.15   17.83    3.45   33.21   73.25    0.00   65.45   72.66  118.45   55.10    0.41    0.00    0.00    0.18    1.49     0.54    0.01    0.10    0.00
    7  167.70   10.36    5.85   50.76   75.20    0.00   67.55   81.76  124.37   68.38    0.33    0.00    0.00    0.07    1.35     0.23    0.01    0.04    0.00
    8  217.94   28.09    8.16   70.39  117.76    0.00   69.10   75.06  108.37  108.47    0.56    0.00    0.00    0.06    1.21     0.52    0.02    0.10    0.00
    9  131.72    9.02    5.36   77.46   58.78    0.00   65.91   65.99  102.84   96.37    0.16    0.00    0.00    0.04    1.04     0.22    0.01    0.05    0.00
   10  147.72   17.50    3.81   77.48   88.37    0.00   63.10   43.34   75.75  101.28    0.24    0.00    0.00    0.09    0.80     0.30    0.01    0.07    0.00
   11   21.07    0.91    1.45   67.18   19.90    0.00   50.47   25.29   83.38   74.45    0.04    0.00    0.00    0.02    0.29     0.02    0.00    0.00    0.00
   12    1.89    0.00    0.53   40.83    0.34    0.00   41.64   10.31   93.78   44.63    0.00    0.00    0.00    0.00    0.56     0.00    0.00    0.00    0.00

 1988 1124.82   96.65   33.80  452.74  502.56    0.00   41.64  552.45 1325.67  608.55    2.34    0.01    0.02    0.94   15.41     2.47    0.06    0.48    0.00
1
    SWAT May 6 2015    VER 2015/Rev 637                                             

    General Input/Output section (file.cio):                                        
    5/31/2016 12:00:00 AM ARCGIS-SWAT interface AV                                  
                                                                                    
Annual Summary for Watershed in year   11 of simulation

UNIT                                    PERCO    TILE                           WATER     SED     NO3     NO3     NO3     NO3        N       P       P
TIME     PREC    SURQ    LATQ     GWQ    LATE       Q     SW       ET     PET   YIELD   YIELD    SURQ    LATQ    PERC    CROP  ORGANIC SOLUBLE ORGANIC TILENO3
         (mm)    (mm)    (mm)    (mm)    (mm)    (mm)    (mm)    (mm)    (mm)    (mm)    (mm)   ------------------(kg nutrient/ha)-------------------- (kg/ha)
    1    6.40    0.00    0.21   13.13    0.78    0.00   42.98    4.73  100.04   15.78    0.00    0.00    0.00    0.00    0.00     0.00    0.00    0.00    0.00
    2    3.52    0.19    0.14    3.28    3.88    0.00   40.18    5.39  123.96    5.20    0.03    0.00    0.00    0.00    0.13     0.01    0.00    0.00    0.00
    3   42.14    0.74    0.41    2.78    3.43    0.00   44.28   35.13  126.64    5.27    0.05    0.00    0.00    0.05    4.44     0.05    0.00    0.01    0.00
    4   55.92    0.86    0.76    2.83    3.58    0.00   30.00   65.65  155.85    5.58    0.04    0.00    0.00    0.04    2.53     0.04    0.00    0.01    0.00
    5  162.12   13.57    2.38    4.68   39.55    0.00   60.46   75.02  128.04   17.97    0.34    0.00    0.00    0.23    1.53     0.43    0.01    0.08    0.00
    6  151.05   10.38    5.00   24.45   61.61    0.00   60.12   77.36  119.75   42.98    0.23    0.00    0.00    0.12    1.51     0.30    0.01    0.06    0.00
    7  216.47   27.70    6.31   45.04   99.60    0.00   68.30   78.95  113.27   75.51    0.69    0.00    0.00    0.12    1.34     0.63    0.02    0.11    0.00
    8  219.66   21.06    7.59   76.21  127.46    0.00   69.01   75.69  107.69  110.16    0.31    0.00    0.00    0.08    1.21     0.41    0.02    0.08    0.00
    9  190.49   18.43    5.73   93.48  101.52    0.00   68.02   70.11   99.84  120.90    0.27    0.00    0.00    0.05    1.05     0.32    0.01    0.06    0.00
   10  124.42   10.78    5.44   95.05   65.98    0.00   60.36   58.08   94.49  116.83    0.25    0.00    0.00    0.05    0.86     0.22    0.01    0.05    0.00
   11   17.07    0.34    1.51   71.05   21.21    0.00   43.53   28.12   93.46   77.66    0.01    0.00    0.00    0.01    0.31     0.01    0.00    0.00    0.00
   12    3.68    0.01    0.47   42.18    0.43    0.00   35.47   10.67   99.30   46.08    0.00    0.00    0.00    0.00    0.47     0.00    0.00    0.00    0.00

 1989 1192.94  104.07   35.96  474.17  529.03    0.00   35.47  584.91 1362.32  639.92    2.23    0.01    0.02    0.77   15.38     2.43    0.07    0.46    0.00
1
    SWAT May 6 2015    VER 2015/Rev 637                                             

    General Input/Output section (file.cio):                                        
    5/31/2016 12:00:00 AM ARCGIS-SWAT interface AV                                  
                                                                                    
Annual Summary for Watershed in year   12 of simulation

UNIT                                    PERCO    TILE                           WATER     SED     NO3     NO3     NO3     NO3        N       P       P
TIME     PREC    SURQ    LATQ     GWQ    LATE       Q     SW       ET     PET   YIELD   YIELD    SURQ    LATQ    PERC    CROP  ORGANIC SOLUBLE ORGANIC TILENO3
         (mm)    (mm)    (mm)    (mm)    (mm)    (mm)    (mm)    (mm)    (mm)    (mm)    (mm)   ------------------(kg nutrient/ha)-------------------- (kg/ha)
