1
    SWAT May 6 2015    VER 2015/Rev 637                                                                  0/ 0/   0      0: 0: 0

    General Input/Output section (file.cio):                                        
    5/31/2016 12:00:00 AM ARCGIS-SWAT interface AV                                  
                                                                                    


LULC  HRU       GIS  SUB  MGT  MON   AREAkm2  PRECIPmm
IRR1    1 000010001    1    0    1.26440E-05     0.700
IRR1    1 000010001    1    0    2.26440E-05     4.000
IRR1    1 000010001    1    0    3.26440E-05     5.900
IRR1    1 000010001    1    0    4.26440E-05    13.300
IRR1    1 000010001    1    0    5.26440E-05    15.500
IRR1    1 000010001    1    0    6.26440E-05    61.600
IRR1    1 000010001    1    0    7.26440E-05    88.700
IRR1    1 000010001    1    0    8.26440E-05    69.800
IRR1    1 000010001    1    0    9.26440E-05    47.900
IRR1    1 000010001    1    0   10.26440E-05    14.800
IRR1    1 000010001    1    0   11.26440E-05     3.800
IRR1    1 000010001    1    0   12.26440E-05     5.900
IRR1    1 000010001    1    0 1979.26440E-05   331.900
IRR1    1 000010001    1    0    1.26440E-05     2.100
IRR1    1 000010001    1    0    2.26440E-05     1.900
IRR1    1 000010001    1    0    3.26440E-05     8.900
IRR1    1 000010001    1    0    4.26440E-05     6.100
IRR1    1 000010001    1    0    5.26440E-05    29.300
IRR1    1 000010001    1    0    6.26440E-05    95.800
IRR1    1 000010001    1    0    7.26440E-05   125.500
IRR1    1 000010001    1    0    8.26440E-05    99.200
IRR1    1 000010001    1    0    9.26440E-05    90.900
IRR1    1 000010001    1    0   10.26440E-05    24.500
IRR1    1 000010001    1    0   11.26440E-05     0.000
IRR1    1 000010001    1    0   12.26440E-05     0.900
IRR1    1 000010001    1    0 1980.26440E-05   485.100
IRR1    1 000010001    1    0    1.26440E-05     7.800
IRR1    1 000010001    1    0    2.26440E-05     4.900
IRR1    1 000010001    1    0    3.26440E-05     9.700
IRR1    1 000010001    1    0    4.26440E-05    16.700
IRR1    1 000010001    1    0    5.26440E-05    38.300
IRR1    1 000010001    1    0    6.26440E-05    71.000
IRR1    1 000010001    1    0    7.26440E-05   115.400
IRR1    1 000010001    1    0    8.26440E-05   100.900
IRR1    1 000010001    1    0    9.26440E-05    96.800
IRR1    1 000010001    1    0   10.26440E-05     5.400
IRR1    1 000010001    1    0   11.26440E-05     5.400
IRR1    1 000010001    1    0   12.26440E-05     1.100
IRR1    1 000010001    1    0 1981.26440E-05   473.400
IRR1    1 000010001    1    0    1.26440E-05     0.400
IRR1    1 000010001    1    0    2.26440E-05     4.800
IRR1    1 000010001    1    0    3.26440E-05    13.800
IRR1    1 000010001    1    0    4.26440E-05    17.600
IRR1    1 000010001    1    0    5.26440E-05    36.300
IRR1    1 000010001    1    0    6.26440E-05   112.600
IRR1    1 000010001    1    0    7.26440E-05    97.000
IRR1    1 000010001    1    0    8.26440E-05    68.200
IRR1    1 000010001    1    0    9.26440E-05    77.200
IRR1    1 000010001    1    0   10.26440E-05    20.500
IRR1    1 000010001    1    0   11.26440E-05     6.000
IRR1    1 000010001    1    0   12.26440E-05     2.000
IRR1    1 000010001    1    0 1982.26440E-05   456.400
IRR1    1 000010001    1    0    1.26440E-05     5.000
IRR1    1 000010001    1    0    2.26440E-05     3.800
IRR1    1 000010001    1    0    3.26440E-05     5.200
IRR1    1 000010001    1    0    4.26440E-05    14.500
IRR1    1 000010001    1    0    5.26440E-05    35.700
IRR1    1 000010001    1    0    6.26440E-05    95.800
IRR1    1 000010001    1    0    7.26440E-05   136.100
IRR1    1 000010001    1    0    8.26440E-05    72.000
IRR1    1 000010001    1    0    9.26440E-05    60.400
IRR1    1 000010001    1    0   10.26440E-05    60.400
IRR1    1 000010001    1    0   11.26440E-05     0.200
IRR1    1 000010001    1    0   12.26440E-05     2.300
IRR1    1 000010001    1    0 1983.26440E-05   491.400
IRR1    1 000010001    1    0    1.26440E-05     3.800
IRR1    1 000010001    1    0    2.26440E-05     1.500
IRR1    1 000010001    1    0    3.26440E-05     2.200
IRR1    1 000010001    1    0    4.26440E-05     3.900
IRR1    1 000010001    1    0    5.26440E-05    28.700
IRR1    1 000010001    1    0    6.26440E-05    90.600
IRR1    1 000010001    1    0    7.26440E-05   141.900
IRR1    1 000010001    1    0    8.26440E-05    26.000
IRR1    1 000010001    1    0    9.26440E-05    33.700
IRR1    1 000010001    1    0   10.26440E-05    10.800
IRR1    1 000010001    1    0   11.26440E-05     3.500
IRR1    1 000010001    1    0   12.26440E-05     1.900
IRR1    1 000010001    1    0 1984.26440E-05   348.500
IRR1    1 000010001    1    0    1.26440E-05     5.600
IRR1    1 000010001    1    0    2.26440E-05     1.500
IRR1    1 000010001    1    0    3.26440E-05     5.900
IRR1    1 000010001    1    0    4.26440E-05     9.000
IRR1    1 000010001    1    0    5.26440E-05    38.800
IRR1    1 000010001    1    0    6.26440E-05    93.500
IRR1    1 000010001    1    0    7.26440E-05    92.300
IRR1    1 000010001    1    0    8.26440E-05    99.300
IRR1    1 000010001    1    0    9.26440E-05    89.400
IRR1    1 000010001    1    0   10.26440E-05    24.900
IRR1    1 000010001    1    0   11.26440E-05     2.000
IRR1    1 000010001    1    0   12.26440E-05     2.900
IRR1    1 000010001    1    0 1985.26440E-05   465.100
IRR1    1 000010001    1    0    1.26440E-05     1.200
IRR1    1 000010001    1    0    2.26440E-05     1.700
IRR1    1 000010001    1    0    3.26440E-05     3.100
IRR1    1 000010001    1    0    4.26440E-05    16.900
IRR1    1 000010001    1    0    5.26440E-05    32.900
IRR1    1 000010001    1    0    6.26440E-05    82.500
IRR1    1 000010001    1    0    7.26440E-05    47.500
IRR1    1 000010001    1    0    8.26440E-05    67.600
IRR1    1 000010001    1    0    9.26440E-05    63.000
IRR1    1 000010001    1    0   10.26440E-05    13.100
IRR1    1 000010001    1    0   11.26440E-05     3.500
IRR1    1 000010001    1    0   12.26440E-05     4.000
IRR1    1 000010001    1    0 1986.26440E-05   337.000
IRR1    1 000010001    1    0    1.26440E-05     0.800
IRR1    1 000010001    1    0    2.26440E-05     5.700
IRR1    1 000010001    1    0    3.26440E-05     4.400
IRR1    1 000010001    1    0    4.26440E-05    15.500
IRR1    1 000010001    1    0    5.26440E-05    31.300
IRR1    1 000010001    1    0    6.26440E-05    69.300
IRR1    1 000010001    1    0    7.26440E-05   120.200
IRR1    1 000010001    1    0    8.26440E-05    76.200
IRR1    1 000010001    1    0    9.26440E-05    87.300
IRR1    1 000010001    1    0   10.26440E-05    15.100
IRR1    1 000010001    1    0   11.26440E-05     0.600
IRR1    1 000010001    1    0   12.26440E-05     9.300
IRR1    1 000010001    1    0 1987.26440E-05   435.700
IRR1    1 000010001    1    0    1.26440E-05     1.800
IRR1    1 000010001    1    0    2.26440E-05     3.800
IRR1    1 000010001    1    0    3.26440E-05     6.100
IRR1    1 000010001    1    0    4.26440E-05    11.800
IRR1    1 000010001    1    0    5.26440E-05    26.400
IRR1    1 000010001    1    0    6.26440E-05    91.700
IRR1    1 000010001    1    0    7.26440E-05   105.000
IRR1    1 000010001    1    0    8.26440E-05    82.100
IRR1    1 000010001    1    0    9.26440E-05    71.700
IRR1    1 000010001    1    0   10.26440E-05     9.100
IRR1    1 000010001    1    0   11.26440E-05     3.100
IRR1    1 000010001    1    0   12.26440E-05     1.900
IRR1    1 000010001    1    0 1988.26440E-05   414.500
IRR1    1 000010001    1    0    1.26440E-05     2.600
IRR1    1 000010001    1    0    2.26440E-05     4.500
IRR1    1 000010001    1    0    3.26440E-05     9.100
IRR1    1 000010001    1    0    4.26440E-05     9.300
IRR1    1 000010001    1    0    5.26440E-05    73.000
IRR1    1 000010001    1    0    6.26440E-05   108.400
IRR1    1 000010001    1    0    7.26440E-05    83.800
IRR1    1 000010001    1    0    8.26440E-05    97.900
IRR1    1 000010001    1    0    9.26440E-05    81.400
IRR1    1 000010001    1    0   10.26440E-05    22.200
IRR1    1 000010001    1    0   11.26440E-05     6.200
IRR1    1 000010001    1    0   12.26440E-05     4.000
IRR1    1 000010001    1    0 1989.26440E-05   502.400
