1
    SWAT May 6 2015    VER 2015/Rev 637                                                                  0/ 0/   0      0: 0: 0

    General Input/Output section (file.cio):                                        
    11/6/2015 12:00:00 AM ARCGIS-SWAT interface AV                                  
                                                                                    
         Number of years in run:   22
         Area of watershed:   774994.125 km2
         Random number generator cycles: 0, use default numbers

         Initial random number seed: wet/dry day prob        748932582
         Initial random number seed: radiation              1948832765
         Initial random number seed: precipitation           857034417
         Initial random number seed: 0.5 hr rainfall          67377721
         Initial random number seed: wind speed              366304404
         Initial random number seed: irrigation             1094585182
         Initial random number seed: relative humidity      1767585417
         Initial random number seed: max temperature         608439319
         Initial random number seed: min temperature         592757081

         Precipitation data used in run:
          Multiple gages simulated for watershed

         Temperature data used in run:
          Multiple gages simulated for watershed

         PET method used: Hargreaves

         Rainfall/Runoff/Routing Option:
          Daily rainfall data
          Runoff estimated with curve number method
          Daily stream routing
           Variable Storage routing method
           Channel dimensions remain constant
           Subbasin algae/CBOD loadings not modeled
           In-stream nutrient transformations modeled using QUAL2E equations

         Subbasin Input Summary:
          Sub Latitude  Elev(m) #HRUs Ponds Elevbnds Wetlnd
            1    32.12  1324.36     8                   
            2    32.12  1155.19     8                   
            3    32.12  1553.87     8                   
            4    32.12   776.63     8                   
            5    32.12   892.45     8                   
            6    32.12   784.56     8                   
            7    32.12   323.09     8                   
            8    32.12   314.25     8                   
            9    32.57   241.71     8                   
           10    32.57   461.16     8                   
           11    32.57   128.93     8                   
           12    32.57   116.13     8                   
           13    32.57   385.57     8                   
           14    32.57   473.35     8                   
           15    32.57   106.07     8                   
           16    32.57   283.16     8                   
           17    30.32   110.03     8                   
           18    30.32    69.19     8                   
           19    30.32   154.53     8                   
           20    30.32   261.52     8                   
           21    30.32   101.50     8                   
           22    30.32    41.15     8                   
           23    30.32    59.44     8                   
           24    30.32    62.79     8                   
           25    27.50    55.47     8                   
           26    27.50    46.02     8                   
           27    27.50    40.54     8                   
           28    27.50    49.99     8                   
           29    27.50    45.42     8                   
           30    27.50    21.64     8                   
           31    27.50   119.79     8                   
           32    27.50    32.92     8                   
           33    26.85    29.57     8                   
           34    26.85    17.37     8                   
           35    26.85   305.41     8                   
           36    26.85   286.21     8                   
           37    26.85    51.51     8                   
           38    26.85    20.73     8                   
           39    26.85     6.10     8                   
           40    26.85    24.38     8                   
           41    25.77    23.47     8                   
           42    25.77     3.96     8                   
           43    25.77    -0.30     8                   
           44    25.77    40.84     8                   
           45    25.77    -1.22     8                   
           46    25.77    -1.52     8                   
           47    25.77    -2.44     8                   

         HRU Input Summary Table 1:
          Sub   HRU   Area(ha) Slope SlpLgth(m) Ovrlnd_N CondII_CN TimeConc(hr) ESCO EPCO
            1      1       0.00 0.093      60.98    0.140     81.00        0.410 0.95 1.00
            1      2       0.00 0.092      60.98    0.140     81.00        0.412 0.95 1.00
            1      3    2691.04 0.093      60.98    0.140     83.00        0.448 0.95 1.00
            1      4   15167.62 0.094      60.98    0.140     83.00        0.581 0.95 1.00
            1      5  560405.62 0.094      60.98    0.100     70.00        4.381 0.95 1.00
            1      6 1061785.50 0.093      60.98    0.150     79.00        7.506 0.95 1.00
            1      7     169.61 0.093      60.98    0.140     91.00        0.414 0.95 1.00
            1      8   77852.96 0.092      60.98    0.050     79.00        0.941 0.95 1.00
            2      9       0.00 0.086      60.98    0.140     84.00        0.420 0.95 1.00
            2     10       0.00 0.088      60.98    0.140     84.00        0.417 0.95 1.00
            2     11   12352.14 0.086      60.98    0.140     87.00        0.569 0.95 1.00
            2     12   45214.55 0.087      60.98    0.140     87.00        0.883 0.95 1.00
            2     13 1934835.88 0.087      60.98    0.100     77.00       12.771 0.95 1.00
            2     14 1636610.62 0.086      60.98    0.150     84.00       11.173 0.95 1.00
            2     15     172.78 0.086      60.98    0.140     94.00        0.424 0.95 1.00
            2     16   97622.99 0.087      60.98    0.050     84.00        1.137 0.95 1.00
            3     17      47.50 0.127      24.39    0.140     81.00        0.216 0.95 1.00
            3     18      32.00 0.126      24.39    0.140     81.00        0.216 0.95 1.00
            3     19   13094.84 0.126      24.39    0.140     83.00        0.216 0.95 1.00
            3     20   71196.79 0.125      24.39    0.140     83.00        0.217 0.95 1.00
            3     21  548913.81 0.126      24.39    0.100     70.00        0.177 0.95 1.00
            3     22 1955586.62 0.126      24.39    0.150     79.00        0.226 0.95 1.00
            3     23     432.56 0.126      24.39    0.140     91.00        0.216 0.95 1.00
            3     24   45850.96 0.127      24.39    0.050     79.00        0.116 0.95 1.00
            4     25     741.83 0.161      18.29    0.140     84.00        0.251 0.95 1.00
            4     26     311.23 0.162      18.29    0.140     84.00        0.207 0.95 1.00
            4     27       0.00 0.167      18.29    0.140     87.00        0.167 0.95 1.00
            4     28   20837.27 0.164      18.29    0.140     87.00        1.690 0.95 1.00
            4     29  259095.39 0.167      18.29    0.100     77.00       13.945 0.95 1.00
            4     30     801.33 0.163      18.29    0.150     84.00        0.264 0.95 1.00
            4     31       0.00 0.163      18.29    0.140     94.00        0.168 0.95 1.00
            4     32       0.00 0.164      18.29    0.050     84.00        0.091 0.95 1.00
            5     33     671.02 0.157      24.39    0.140     84.00        0.252 0.95 1.00
            5     34     385.75 0.157      24.39    0.140     84.00        0.233 0.95 1.00
            5     35       0.00 0.153      24.39    0.140     87.00        0.204 0.95 1.00
            5     36   17414.41 0.152      24.39    0.140     87.00        1.061 0.95 1.00
            5     37  296256.66 0.157      24.39    0.100     77.00       10.387 0.95 1.00
            5     38       0.00 0.157      24.39    0.150     84.00        0.211 0.95 1.00
            5     39       0.00 0.153      24.39    0.140     94.00        0.204 0.95 1.00
            5     40       0.00 0.152      24.39    0.050     84.00        0.110 0.95 1.00
            6     41   33298.56 0.100      60.98    0.140     84.00        2.269 0.95 1.00
            6     42    3487.72 0.096      60.98    0.140     84.00        0.666 0.95 1.00
            6     43       0.00 0.098      60.98    0.140     87.00        0.404 0.95 1.00
            6     44  193533.58 0.098      60.98    0.140     87.00        9.113 0.95 1.00
            6     45 1887946.88 0.099      60.98    0.100     77.00       64.238 0.95 1.00
            6     46   28045.35 0.099      60.98    0.150     84.00        2.027 0.95 1.00
            6     47       0.00 0.099      60.98    0.140     94.00        0.403 0.95 1.00
            6     48     329.95 0.098      60.98    0.050     84.00        0.251 0.95 1.00
            7     49   69746.86 0.094      60.98    0.140     81.00        3.343 0.95 1.00
            7     50   19473.42 0.094      60.98    0.140     81.00        1.370 0.95 1.00
            7     51       0.00 0.094      60.98    0.140     83.00        0.409 0.95 1.00
            7     52  421241.53 0.094      60.98    0.140     83.00       14.560 0.95 1.00
            7     53 2592729.75 0.095      60.98    0.100     70.00       69.730 0.95 1.00
            7     54    2815.63 0.094      60.98    0.150     79.00        0.603 0.95 1.00
            7     55       0.00 0.095      60.98    0.140     91.00        0.408 0.95 1.00
            7     56       0.00 0.094      60.98    0.050     79.00        0.221 0.95 1.00
            8     57    7941.65 0.070      60.98    0.140     84.00        1.267 0.95 1.00
            8     58     834.23 0.070      60.98    0.140     84.00        0.561 0.95 1.00
            8     59       0.00 0.070      60.98    0.140     87.00        0.447 0.95 1.00
            8     60   37742.41 0.070      60.98    0.140     87.00        3.656 0.95 1.00
            8     61  421341.12 0.071      60.98    0.100     77.00       26.861 0.95 1.00
            8     62       0.00 0.069      60.98    0.150     84.00        0.468 0.95 1.00
            8     63       0.00 0.070      60.98    0.140     94.00        0.447 0.95 1.00
            8     64       0.00 0.071      60.98    0.050     84.00        0.240 0.95 1.00
            9     65   67131.18 0.073      60.98    0.140     84.00        2.584 0.95 1.00
            9     66    6408.26 0.073      60.98    0.140     84.00        0.716 0.95 1.00
            9     67    1979.56 0.072      60.98    0.140     87.00        0.541 0.95 1.00
            9     68   99439.84 0.073      60.98    0.140     87.00        3.462 0.95 1.00
            9     69 1733415.25 0.073      60.98    0.100     77.00       37.201 0.95 1.00
            9     70    1623.92 0.073      60.98    0.150     84.00        0.543 0.95 1.00
            9     71       0.00 0.073      60.98    0.140     94.00        0.441 0.95 1.00
            9     72       0.00 0.072      60.98    0.050     84.00        0.239 0.95 1.00
           10     73   33126.39 0.074      60.98    0.140     84.00        1.197 0.95 1.00
           10     74   30487.95 0.075      60.98    0.140     84.00        1.142 0.95 1.00
           10     75    3087.85 0.075      60.98    0.140     87.00        0.533 0.95 1.00
           10     76  108877.92 0.075      60.98    0.140     87.00        2.583 0.95 1.00
           10     77 1348963.88 0.075      60.98    0.100     77.00       19.760 0.95 1.00
           10     78     306.69 0.076      60.98    0.150     84.00        0.467 0.95 1.00
           10     79       0.00 0.076      60.98    0.140     94.00        0.436 0.95 1.00
           10     80       0.00 0.075      60.98    0.050     84.00        0.236 0.95 1.00
           11     81   20288.06 0.068      60.98    0.140     84.00        1.561 0.95 1.00
           11     82   31328.04 0.069      60.98    0.140     84.00        2.072 0.95 1.00
           11     83    5350.83 0.068      60.98    0.140     87.00        0.797 0.95 1.00
           11     84   86600.99 0.068      60.98    0.140     87.00        4.403 0.95 1.00
           11     85 1234622.38 0.068      60.98    0.100     77.00       40.790 0.95 1.00
           11     86       0.00 0.068      60.98    0.150     84.00        0.470 0.95 1.00
           11     87       0.00 0.068      60.98    0.140     94.00        0.451 0.95 1.00
           11     88       0.00 0.069      60.98    0.050     84.00        0.242 0.95 1.00
           12     89  302690.78 0.055      60.98    0.140     84.00        4.510 0.95 1.00
           12     90   82785.45 0.054      60.98    0.140     84.00        1.779 0.95 1.00
           12     91   12451.79 0.054      60.98    0.140     87.00        0.730 0.95 1.00
           12     92  241738.00 0.055      60.98    0.140     87.00        3.790 0.95 1.00
           12     93 1674916.50 0.054      60.98    0.100     77.00       18.398 0.95 1.00
           12     94    1058.31 0.054      60.98    0.150     84.00        0.532 0.95 1.00
           12     95       0.00 0.054      60.98    0.140     94.00        0.483 0.95 1.00
           12     96       0.00 0.054      60.98    0.050     84.00        0.261 0.95 1.00
           13     97    5357.79 0.072      60.98    0.140     84.00        0.656 0.95 1.00
           13     98   13821.55 0.071      60.98    0.140     84.00        0.933 0.95 1.00
           13     99     437.79 0.072      60.98    0.140     87.00        0.467 0.95 1.00
           13    100   18082.61 0.072      60.98    0.140     87.00        1.060 0.95 1.00
           13    101 1080420.25 0.072      60.98    0.100     77.00       22.464 0.95 1.00
           13    102       0.00 0.072      60.98    0.150     84.00        0.462 0.95 1.00
           13    103       0.00 0.072      60.98    0.140     94.00        0.443 0.95 1.00
           13    104       0.00 0.072      60.98    0.050     84.00        0.239 0.95 1.00
           14    105    7304.86 0.079      60.98    0.140     84.00        1.181 0.95 1.00
           14    106   12174.00 0.080      60.98    0.140     84.00        1.601 0.95 1.00
           14    107     607.23 0.079      60.98    0.140     87.00        0.516 0.95 1.00
           14    108   24198.87 0.080      60.98    0.140     87.00        2.567 0.95 1.00
           14    109  639085.38 0.081      60.98    0.100     77.00       37.849 0.95 1.00
           14    110       0.00 0.079      60.98    0.150     84.00        0.449 0.95 1.00
           14    111       0.00 0.080      60.98    0.140     94.00        0.429 0.95 1.00
           14    112       0.00 0.079      60.98    0.050     84.00        0.232 0.95 1.00
           15    113       0.00 0.088      60.98    0.140     84.00        0.417 0.95 1.00
           15    114       0.00 0.086      60.98    0.140     84.00        0.420 0.95 1.00
           15    115       0.00 0.089      60.98    0.140     87.00        0.416 0.95 1.00
           15    116       0.00 0.086      60.98    0.140     87.00        0.420 0.95 1.00
           15    117    6446.48 0.072      60.98    0.100     77.00        1.344 0.95 1.00
           15    118       0.00 0.087      60.98    0.150     84.00        0.436 0.95 1.00
           15    119       0.00 0.079      60.98    0.140     94.00        0.431 0.95 1.00
           15    120       0.00 0.077      60.98    0.050     84.00        0.234 0.95 1.00
           16    121   40692.76 0.086      60.98    0.140     84.00        0.889 0.95 1.00
           16    122   35962.09 0.085      60.98    0.140     84.00        0.843 0.95 1.00
           16    123    9233.31 0.085      60.98    0.140     87.00        0.550 0.95 1.00
           16    124   83354.34 0.086      60.98    0.140     87.00        1.299 0.95 1.00
           16    125 4088786.25 0.086      60.98    0.100     77.00       26.831 0.95 1.00
           16    126       0.00 0.086      60.98    0.150     84.00        0.438 0.95 1.00
           16    127       0.00 0.086      60.98    0.140     94.00        0.420 0.95 1.00
           16    128       0.00 0.085      60.98    0.050     84.00        0.227 0.95 1.00
           17    129   11456.73 0.077      60.98    0.140     84.00        1.067 0.95 1.00
           17    130    8147.12 0.076      60.98    0.140     84.00        0.906 0.95 1.00
           17    131     873.93 0.076      60.98    0.140     87.00        0.503 0.95 1.00
           17    132   17321.09 0.076      60.98    0.140     87.00        1.345 0.95 1.00
           17    133  974863.81 0.076      60.98    0.100     77.00       31.254 0.95 1.00
           17    134       0.00 0.077      60.98    0.150     84.00        0.453 0.95 1.00
           17    135       0.00 0.077      60.98    0.140     94.00        0.434 0.95 1.00
           17    136       0.00 0.077      60.98    0.050     84.00        0.234 0.95 1.00
           18    137     676.86 0.051      60.98    0.140     81.00        0.676 0.95 1.00
           18    138    4866.44 0.052      60.98    0.140     81.00        1.523 0.95 1.00
           18    139     108.15 0.050      60.98    0.140     83.00        0.531 0.95 1.00
           18    140    9186.64 0.049      91.46    0.140     83.00        2.439 0.95 1.00
           18    141  184309.45 0.051      60.98    0.100     70.00       25.283 0.95 1.00
           18    142       0.00 0.049      91.46    0.150     79.00        0.661 0.95 1.00
           18    143       0.00 0.052      60.98    0.140     91.00        0.489 0.95 1.00
           18    144       0.00 0.049      91.46    0.050     79.00        0.342 0.95 1.00
           19    145  208192.12 0.041      91.46    0.140     84.00        7.430 0.95 1.00
           19    146  181790.56 0.041      91.46    0.140     84.00        6.673 0.95 1.00
           19    147   21100.57 0.041      91.46    0.140     87.00        1.582 0.95 1.00
           19    148  283430.75 0.040      91.46    0.140     87.00        9.530 0.95 1.00
           19    149 1814864.50 0.042      91.46    0.100     77.00       45.500 0.95 1.00
           19    150    3394.31 0.041      91.46    0.150     84.00        0.882 0.95 1.00
           19    151       0.00 0.042      91.46    0.140     94.00        0.665 0.95 1.00
           19    152       0.00 0.040      91.46    0.050     84.00        0.364 0.95 1.00
           20    153   46033.23 0.069      60.98    0.140     84.00        2.145 0.95 1.00
           20    154   28814.62 0.068      60.98    0.140     84.00        1.577 0.95 1.00
           20    155   11567.01 0.069      60.98    0.140     87.00        0.956 0.95 1.00
           20    156   20050.80 0.068      60.98    0.140     87.00        1.271 0.95 1.00
           20    157 1571251.50 0.069      60.98    0.100     77.00       37.611 0.95 1.00
           20    158    3053.48 0.069      60.98    0.150     84.00        0.626 0.95 1.00
           20    159       0.00 0.067      60.98    0.140     94.00        0.453 0.95 1.00
           20    160       0.00 0.069      60.98    0.050     84.00        0.242 0.95 1.00
           21    161   33958.06 0.069      60.98    0.140     84.00        2.038 0.95 1.00
           21    162   32699.71 0.069      60.98    0.140     84.00        1.986 0.95 1.00
           21    163    3668.95 0.069      60.98    0.140     87.00        0.676 0.95 1.00
           21    164   33620.10 0.069      60.98    0.140     87.00        2.024 0.95 1.00
           21    165 1043791.88 0.070      60.98    0.100     77.00       32.196 0.95 1.00
           21    166     999.68 0.070      60.98    0.150     84.00        0.539 0.95 1.00
           21    167       0.00 0.069      60.98    0.140     94.00        0.449 0.95 1.00
           21    168       0.00 0.070      60.98    0.050     84.00        0.241 0.95 1.00
           22    169  279140.62 0.061      60.98    0.140     84.00        1.104 0.95 1.00
           22    170  435349.66 0.061      60.98    0.140     84.00        1.407 0.95 1.00
           22    171   11956.53 0.062      60.98    0.140     87.00        0.504 0.95 1.00
           22    172  315826.56 0.061      60.98    0.140     87.00        1.177 0.95 1.00
           22    173 4527723.50 0.061      60.98    0.100     77.00        7.686 0.95 1.00
           22    174   12996.49 0.062      60.98    0.150     84.00        0.527 0.95 1.00
           22    175     141.27 0.062      60.98    0.140     94.00        0.464 0.95 1.00
           22    176       0.01 0.061      60.98    0.050     84.00        0.251 0.95 1.00
           23    177   29340.28 0.022      91.46    0.140     81.00        1.461 0.95 1.00
           23    178   71012.20 0.022      91.46    0.140     81.00        2.226 0.95 1.00
           23    179   11224.59 0.022      91.46    0.140     83.00        1.089 0.95 1.00
           23    180   31601.57 0.022      91.46    0.140     83.00        1.505 0.95 1.00
           23    181 1849909.00 0.050      60.98    0.100     77.00       24.993 0.95 1.00
           23    182    1080.93 0.022      91.46    0.150     79.00        0.877 0.95 1.00
           23    183       0.00 0.021      91.46    0.140     91.00        0.818 0.95 1.00
           23    184       0.00 0.050      60.98    0.050     84.00        0.267 0.95 1.00
           24    185    3846.77 0.016     121.95    0.140     81.00        1.556 0.95 1.00
           24    186   19491.63 0.027      91.46    0.140     84.00        2.830 0.95 1.00
           24    187     497.52 0.029      91.46    0.140     87.00        0.826 0.95 1.00
           24    188   21515.23 0.027      91.46    0.140     87.00        3.017 0.95 1.00
           24    189  405245.44 0.028      91.46    0.100     77.00       30.089 0.95 1.00
           24    190       0.00 0.029      91.46    0.150     84.00        0.774 0.95 1.00
           24    191       0.00 0.028      91.46    0.140     94.00        0.751 0.95 1.00
           24    192       0.00 0.027      91.46    0.050     84.00        0.409 0.95 1.00
           25    193       0.00 0.035      91.46    0.140     84.00        0.702 0.95 1.00
           25    194    1292.19 0.031      91.46    0.140     84.00        1.159 0.95 1.00
           25    195       0.00 0.029      91.46    0.140     87.00        0.743 0.95 1.00
           25    196     501.46 0.032      91.46    0.140     87.00        0.909 0.95 1.00
           25    197   41459.42 0.030      91.46    0.100     77.00        9.571 0.95 1.00
           25    198       0.00 0.030      91.46    0.150     84.00        0.766 0.95 1.00
           25    199       0.00 0.030      91.46    0.140     94.00        0.735 0.95 1.00
           25    200       0.00 0.031      91.46    0.050     84.00        0.392 0.95 1.00
           26    201  612691.19 0.007     121.95    0.140     81.00       13.732 0.95 1.00
           26    202  745756.38 0.007     121.95    0.140     81.00       16.056 0.95 1.00
           26    203    5713.17 0.007     121.95    0.140     83.00        1.559 0.95 1.00
           26    204  737944.12 0.008     121.95    0.140     83.00       15.868 0.95 1.00
           26    205 2767956.00 0.007     121.95    0.100     70.00       47.428 0.95 1.00
           26    206   58200.40 0.008     121.95    0.150     79.00        2.932 0.95 1.00
           26    207       0.00 0.008     121.95    0.140     91.00        1.299 0.95 1.00
           26    208       0.00 0.007     121.95    0.050     79.00        0.729 0.95 1.00
           27    209  213948.55 0.005     121.95    0.140     81.00        5.996 0.95 1.00
           27    210  161010.22 0.005     121.95    0.140     81.00        5.005 0.95 1.00
           27    211    1240.20 0.005     121.95    0.140     83.00        1.545 0.95 1.00
           27    212  146732.69 0.005     121.95    0.140     83.00        4.731 0.95 1.00
           27    213 1154549.50 0.005     121.95    0.100     70.00       20.894 0.95 1.00
           27    214   22242.66 0.005     121.95    0.150     79.00        2.180 0.95 1.00
           27    215       0.00 0.005     121.95    0.140     91.00        1.495 0.95 1.00
           27    216       0.00 0.005     121.95    0.050     79.00        0.806 0.95 1.00
           28    217  510615.16 0.004     121.95    0.140     81.00        9.355 0.95 1.00
           28    218 1258350.12 0.004     121.95    0.140     81.00       18.675 0.95 1.00
           28    219    1044.98 0.004     121.95    0.140     83.00        1.633 0.95 1.00
           28    220  893059.75 0.004     121.95    0.140     83.00       14.249 0.95 1.00
           28    221 2496659.75 0.004     121.95    0.100     70.00       32.405 0.95 1.00
           28    222  174283.94 0.004     121.95    0.150     79.00        4.695 0.95 1.00
           28    223       0.01 0.004     121.95    0.140     91.00        1.599 0.95 1.00
           28    224       0.01 0.004     121.95    0.050     79.00        0.862 0.95 1.00
           29    225       0.00 0.019     121.95    0.140     84.00        1.002 0.95 1.00
           29    226       0.00 0.033      91.46    0.140     84.00        0.714 0.95 1.00
           29    227       0.00 0.032      91.46    0.140     87.00        0.721 0.95 1.00
           29    228     696.41 0.031      91.46    0.140     87.00        0.802 0.95 1.00
           29    229    3288.76 0.039      91.46    0.100     77.00        0.843 0.95 1.00
           29    230       0.00 0.034      91.46    0.150     84.00        0.738 0.95 1.00
           29    231       0.00 0.034      91.46    0.140     94.00        0.708 0.95 1.00
           29    232       0.00 0.030      91.46    0.050     84.00        0.396 0.95 1.00
           30    233       0.00 0.038      91.46    0.140     84.00        0.685 0.95 1.00
           30    234       0.00 0.047      91.46    0.140     84.00        0.642 0.95 1.00
           30    235       0.00 0.039      91.46    0.140     87.00        0.679 0.95 1.00
           30    236       0.00 0.040      91.46    0.140     87.00        0.674 0.95 1.00
           30    237    6544.65 0.035      91.46    0.100     77.00        2.712 0.95 1.00
           30    238       0.00 0.036      91.46    0.150     84.00        0.725 0.95 1.00
           30    239       0.00 0.041      91.46    0.140     94.00        0.669 0.95 1.00
           30    240       0.00 0.041      91.46    0.050     84.00        0.361 0.95 1.00
           31    241   42222.32 0.026      91.46    0.140     84.00        2.570 0.95 1.00
           31    242   72709.65 0.024      91.46    0.140     84.00        3.686 0.95 1.00
           31    243    4541.96 0.026      91.46    0.140     87.00        1.024 0.95 1.00
           31    244   52595.73 0.026      91.46    0.140     87.00        2.952 0.95 1.00
           31    245 1049879.62 0.024      91.46    0.100     77.00       30.635 0.95 1.00
           31    246   18018.91 0.026      91.46    0.150     84.00        1.655 0.95 1.00
           31    247       0.00 0.024      91.46    0.140     94.00        0.786 0.95 1.00
           31    248       0.00 0.025      91.46    0.050     84.00        0.419 0.95 1.00
           32    249    9605.58 0.005     121.95    0.140     84.00        2.007 0.95 1.00
           32    250    9166.50 0.004     121.95    0.140     84.00        2.090 0.95 1.00
           32    251    1333.91 0.005     121.95    0.140     87.00        1.586 0.95 1.00
           32    252    5698.22 0.005     121.95    0.140     87.00        1.819 0.95 1.00
           32    253  389647.47 0.004     121.95    0.100     77.00       14.370 0.95 1.00
           32    254    7983.73 0.005     121.95    0.150     84.00        1.994 0.95 1.00
           32    255       0.00 0.005     121.95    0.140     94.00        1.495 0.95 1.00
           32    256       0.00 0.004     121.95    0.050     84.00        0.862 0.95 1.00
           33    257     823.57 0.008     121.95    0.140     81.00        1.403 0.95 1.00
           33    258    4315.81 0.008     121.95    0.140     81.00        1.742 0.95 1.00
           33    259     177.80 0.008     121.95    0.140     83.00        1.326 0.95 1.00
           33    260    1757.39 0.008     121.95    0.140     83.00        1.501 0.95 1.00
           33    261  242624.92 0.008     121.95    0.100     70.00       16.117 0.95 1.00
           33    262    1845.06 0.009     121.95    0.150     79.00        1.517 0.95 1.00
           33    263       0.00 0.008     121.95    0.140     91.00        1.299 0.95 1.00
           33    264       0.00 0.008     121.95    0.050     79.00        0.700 0.95 1.00
           34    265       0.00 0.006     121.95    0.140     84.00        1.416 0.95 1.00
           34    266       0.00 0.006     121.95    0.140     84.00        1.416 0.95 1.00
           34    267       0.00 0.005     121.95    0.140     87.00        1.495 0.95 1.00
           34    268       0.00 0.005     121.95    0.140     87.00        1.495 0.95 1.00
           34    269    3865.77 0.007     121.95    0.100     77.00        2.189 0.95 1.00
           34    270       0.00 0.010     121.95    0.150     84.00        1.266 0.95 1.00
           34    271       0.00 0.005     121.95    0.140     94.00        1.495 0.95 1.00
           34    272       0.00 0.007     121.95    0.050     84.00        0.729 0.95 1.00
           35    273    7670.04 0.062      60.98    0.140     84.00        0.766 0.95 1.00
           35    274   30204.53 0.062      60.98    0.140     84.00        1.466 0.95 1.00
           35    275    2870.57 0.061      60.98    0.140     87.00        0.594 0.95 1.00
           35    276   19981.74 0.062      60.98    0.140     87.00        1.162 0.95 1.00
           35    277 2814057.00 0.062      60.98    0.100     77.00       53.359 0.95 1.00
           35    278     194.69 0.061      60.98    0.150     84.00        0.498 0.95 1.00
           35    279       0.00 0.062      60.98    0.140     94.00        0.464 0.95 1.00
           35    280       0.00 0.062      60.98    0.050     84.00        0.250 0.95 1.00
           36    281   28386.33 0.052      60.98    0.140     84.00        1.457 0.95 1.00
           36    282   19800.79 0.052      60.98    0.140     84.00        1.195 0.95 1.00
           36    283   52953.91 0.052      60.98    0.140     87.00        2.159 0.95 1.00
           36    284  101694.27 0.053      60.98    0.140     87.00        3.443 0.95 1.00
           36    285 1687816.00 0.053      60.98    0.100     77.00       34.944 0.95 1.00
           36    286     290.22 0.053      60.98    0.150     84.00        0.524 0.95 1.00
           36    287       0.00 0.053      60.98    0.140     94.00        0.486 0.95 1.00
           36    288       0.00 0.052      60.98    0.050     84.00        0.263 0.95 1.00
           37    289   45404.62 0.029      91.46    0.140     84.00        2.106 0.95 1.00
           37    290   61566.73 0.029      91.46    0.140     84.00        2.522 0.95 1.00
           37    291   65614.27 0.028      91.46    0.140     87.00        2.632 0.95 1.00
           37    292  418941.84 0.028      91.46    0.140     87.00       10.278 0.95 1.00
           37    293 2477974.75 0.028      91.46    0.100     77.00       45.739 0.95 1.00
           37    294    1947.67 0.028      91.46    0.150     84.00        0.869 0.95 1.00
           37    295       0.00 0.029      91.46    0.140     94.00        0.743 0.95 1.00
           37    296       0.00 0.029      91.46    0.050     84.00        0.400 0.95 1.00
           38    297      52.20 0.006     121.95    0.140     81.00        1.450 0.95 1.00
           38    298    1434.05 0.009     121.95    0.140     81.00        1.877 0.95 1.00
           38    299      27.59 0.008     121.95    0.140     83.00        1.318 0.95 1.00
           38    300     516.30 0.008     121.95    0.140     83.00        1.554 0.95 1.00
           38    301   39967.07 0.006     121.95    0.100     70.00       12.618 0.95 1.00
           38    302       0.00 0.010     121.95    0.150     79.00        1.266 0.95 1.00
           38    303       0.00 0.009     121.95    0.140     91.00        1.254 0.95 1.00
           38    304       0.00 0.009     121.95    0.050     79.00        0.676 0.95 1.00
           39    305       0.00 0.004     121.95    0.140     84.00        1.599 0.95 1.00
           39    306       0.00 0.009     121.95    0.140     84.00        1.254 0.95 1.00
           39    307       0.00 0.008     121.95    0.140     87.00        1.299 0.95 1.00
           39    308       0.00 0.008     121.95    0.140     87.00        1.299 0.95 1.00
           39    309     834.00 0.009     121.95    0.100     77.00        2.620 0.95 1.00
           39    310       0.00 0.006     121.95    0.150     84.00        1.476 0.95 1.00
           39    311       0.00 0.014     121.95    0.140     94.00        1.098 0.95 1.00
           39    312       0.00 0.007     121.95    0.050     84.00        0.729 0.95 1.00
           40    313     794.52 0.009     121.95    0.140     84.00        1.305 0.95 1.00
           40    314   42547.11 0.009     121.95    0.140     84.00        2.910 0.95 1.00
           40    315     169.38 0.009     121.95    0.140     87.00        1.267 0.95 1.00
           40    316   18145.21 0.008     121.95    0.140     87.00        2.084 0.95 1.00
           40    317 1591667.75 0.008     121.95    0.100     77.00       40.453 0.95 1.00
           40    318    8440.83 0.008     121.95    0.150     84.00        1.756 0.95 1.00
           40    319       0.00 0.009     121.95    0.140     94.00        1.254 0.95 1.00
           40    320       0.00 0.009     121.95    0.050     84.00        0.676 0.95 1.00
           41    321    1863.63 0.010     121.95    0.140     84.00        1.230 0.95 1.00
           41    322   22174.03 0.010     121.95    0.140     84.00        1.347 0.95 1.00
           41    323    1522.57 0.010     121.95    0.140     87.00        1.227 0.95 1.00
           41    324   43836.36 0.010     121.95    0.140     87.00        1.456 0.95 1.00
           41    325  555447.88 0.010     121.95    0.100     77.00        3.217 0.95 1.00
           41    326    2779.64 0.010     121.95    0.150     84.00        1.288 0.95 1.00
           41    327       0.00 0.010     121.95    0.140     94.00        1.215 0.95 1.00
           41    328       0.00 0.010     121.95    0.050     84.00        0.655 0.95 1.00
           42    329   13763.77 0.007     121.95    0.140     81.00        2.469 0.95 1.00
           42    330   63281.94 0.007     121.95    0.140     81.00        5.597 0.95 1.00
           42    331     553.46 0.007     121.95    0.140     83.00        1.419 0.95 1.00
           42    332   54119.47 0.007     121.95    0.140     83.00        5.054 0.95 1.00
           42    333  197710.69 0.007     121.95    0.100     70.00       12.608 0.95 1.00
           42    334   28937.21 0.007     121.95    0.150     79.00        3.550 0.95 1.00
           42    335       0.00 0.007     121.95    0.140     91.00        1.352 0.95 1.00
           42    336       0.00 0.007     121.95    0.050     79.00        0.729 0.95 1.00
           43    337  200479.05 0.012     121.95    0.140     81.00        4.008 0.95 1.00
           43    338  757893.19 0.011     121.95    0.140     81.00       10.330 0.95 1.00
           43    339   10344.45 0.012     121.95    0.140     83.00        1.364 0.95 1.00
           43    340  326706.41 0.011     121.95    0.140     83.00        5.562 0.95 1.00
           43    341 4566114.00 0.012     121.95    0.100     70.00       44.977 0.95 1.00
           43    342  214569.95 0.011     121.95    0.150     79.00        4.263 0.95 1.00
           43    343     125.04 0.012     121.95    0.140     91.00        1.155 0.95 1.00
           43    344       0.01 0.012     121.95    0.050     79.00        0.620 0.95 1.00
           44    345   10138.84 0.007     121.95    0.140     84.00        1.479 0.95 1.00
           44    346  114371.44 0.007     121.95    0.140     84.00        2.413 0.95 1.00
           44    347     216.64 0.007     121.95    0.140     87.00        1.356 0.95 1.00
           44    348   42127.13 0.007     121.95    0.140     87.00        1.795 0.95 1.00
           44    349 1981640.38 0.008     121.95    0.100     77.00       13.938 0.95 1.00
           44    350   40741.89 0.008     121.95    0.150     84.00        1.784 0.95 1.00
           44    351       0.00 0.007     121.95    0.140     94.00        1.352 0.95 1.00
           44    352       0.00 0.007     121.95    0.050     84.00        0.729 0.95 1.00
           45    353   38145.36 0.005     121.95    0.140     81.00        2.643 0.95 1.00
           45    354   97568.55 0.004     121.95    0.140     81.00        4.209 0.95 1.00
           45    355     761.23 0.004     121.95    0.140     83.00        1.636 0.95 1.00
           45    356   40695.48 0.004     121.95    0.140     83.00        2.814 0.95 1.00
           45    357  176385.88 0.004     121.95    0.100     70.00        5.689 0.95 1.00
           45    358  154845.27 0.004     121.95    0.150     79.00        5.577 0.95 1.00
           45    359       0.00 0.005     121.95    0.140     94.00        1.495 0.95 1.00
           45    360       0.00 0.004     121.95    0.050     84.00        0.862 0.95 1.00
           46    361   37440.63 0.002     121.95    0.140     81.00        5.491 0.95 1.00
           46    362  171220.53 0.003     121.95    0.140     81.00       15.062 0.95 1.00
           46    363     325.33 0.002     121.95    0.140     83.00        2.024 0.95 1.00
           46    364   25092.50 0.003     121.95    0.140     83.00        4.225 0.95 1.00
           46    365    9746.40 0.003     121.95    0.100     70.00        2.509 0.95 1.00
           46    366  134872.91 0.002     121.95    0.150     79.00       12.861 0.95 1.00
           46    367       0.00 0.002     121.95    0.140     91.00        1.969 0.95 1.00
           46    368       0.00 0.002     121.95    0.050     79.00        1.061 0.95 1.00
           47    369 1187138.25 0.003     121.95    0.140     81.00       38.592 0.95 1.00
           47    370  328131.19 0.003     121.95    0.140     81.00       13.704 0.95 1.00
           47    371  131843.69 0.003     121.95    0.140     83.00        7.129 0.95 1.00
           47    372   63466.03 0.003     121.95    0.140     83.00        4.584 0.95 1.00
           47    373       0.00 0.003     121.95    0.100     70.00        1.424 0.95 1.00
           47    374       0.00 0.003     121.95    0.150     79.00        1.817 0.95 1.00
           47    375       0.00 0.003     121.95    0.140     91.00        1.743 0.95 1.00
           47    376       0.00 0.003     121.95    0.050     79.00        0.940 0.95 1.00

         HRU CN Input Summary Table:
          Sub   HRU   Area(ha)  LULC      Soil    CN1    CN2    CN3  Wilting Point (mm H2O)  Field Capacity (mm H2O)  Saturation (mm H2O)
            1      1       0.00  IRRC  I-K-U-2c   64.3   81.0   92.0                   146.6                     60.0                374.1
            1      2       0.00  RICE  I-K-U-2c   64.3   81.0   92.0                   146.6                     60.0                374.1
            1      3    2691.04  IRRU  I-K-U-2c   67.0   83.0   93.1                   146.6                     60.0                374.1
            1      4   15167.62  AGRL  I-K-U-2c   67.0   83.0   93.1                   146.6                     60.0                374.1
            1      5  560405.62  FRSE  I-K-U-2c   51.2   70.0   85.7                   146.6                     60.0                374.1
            1      6 1061785.50  RNGE  I-K-U-2c   61.7   79.0   91.0                   146.6                     60.0                374.1
            1      7     169.61  BARR  I-K-U-2c   79.8   91.0   96.7                   146.6                     60.0                374.1
            1      8   77852.96  WETL  I-K-U-2c   61.7   79.0   91.0                   146.6                     60.0                374.1
            2      9       0.00  IRRC  I-X-2c-3   68.4   84.0   93.5                   167.2                     70.0                278.1
            2     10       0.00  RICE  I-X-2c-3   68.4   84.0   93.5                   167.2                     70.0                278.1
            2     11   12352.14  IRRU  I-X-2c-3   73.0   87.0   95.0                   167.2                     70.0                278.1
            2     12   45214.55  AGRL  I-X-2c-3   73.0   87.0   95.0                   167.2                     70.0                278.1
            2     13 1934835.88  FRSE  I-X-2c-3   59.3   77.0   89.9                   167.2                     70.0                278.1
            2     14 1636610.62  RNGE  I-X-2c-3   68.4   84.0   93.5                   167.2                     70.0                278.1
            2     15     172.78  BARR  I-X-2c-3   85.8   94.0   97.9                   167.2                     70.0                278.1
            2     16   97622.99  WETL  I-X-2c-3   68.4   84.0   93.5                   167.2                     70.0                278.1
            3     17      47.50  IRRC  I-Bh-U-2   64.3   81.0   92.0                   144.0                     60.0                399.4
            3     18      32.00  RICE  I-Bh-U-2   64.3   81.0   92.0                   144.0                     60.0                399.4
            3     19   13094.84  IRRU  I-Bh-U-2   67.0   83.0   93.1                   144.0                     60.0                399.4
            3     20   71196.79  AGRL  I-Bh-U-2   67.0   83.0   93.1                   144.0                     60.0                399.4
            3     21  548913.81  FRSE  I-Bh-U-2   51.2   70.0   85.7                   144.0                     60.0                399.4
            3     22 1955586.62  RNGE  I-Bh-U-2   61.7   79.0   91.0                   144.0                     60.0                399.4
            3     23     432.56  BARR  I-Bh-U-2   79.8   91.0   96.7                   144.0                     60.0                399.4
            3     24   45850.96  WETL  I-Bh-U-2   61.7   79.0   91.0                   144.0                     60.0                399.4
            4     25     741.83  IRRC  Jc55-2ab   68.4   84.0   93.5                    89.0                    180.0                382.7
            4     26     311.23  RICE  Jc55-2ab   68.4   84.0   93.5                    89.0                    180.0                382.7
            4     27       0.00  IRRU  Jc55-2ab   73.0   87.0   95.0                    89.0                    180.0                382.7
            4     28   20837.27  AGRL  Jc55-2ab   73.0   87.0   95.0                    89.0                    180.0                382.7
            4     29  259095.39  FRSE  Jc55-2ab   59.3   77.0   89.9                    89.0                    180.0                382.7
            4     30     801.33  RNGE  Jc55-2ab   68.4   84.0   93.5                    89.0                    180.0                382.7
            4     31       0.00  BARR  Jc55-2ab   85.8   94.0   97.9                    89.0                    180.0                382.7
            4     32       0.00  WETL  Jc55-2ab   68.4   84.0   93.5                    89.0                    180.0                382.7
            5     33     671.02  IRRC  Jc55-2ab   68.4   84.0   93.5                    89.0                    180.0                382.7
            5     34     385.75  RICE  Jc55-2ab   68.4   84.0   93.5                    89.0                    180.0                382.7
            5     35       0.00  IRRU  Jc55-2ab   73.0   87.0   95.0                    89.0                    180.0                382.7
            5     36   17414.41  AGRL  Jc55-2ab   73.0   87.0   95.0                    89.0                    180.0                382.7
            5     37  296256.66  FRSE  Jc55-2ab   59.3   77.0   89.9                    89.0                    180.0                382.7
            5     38       0.00  RNGE  Jc55-2ab   68.4   84.0   93.5                    89.0                    180.0                382.7
            5     39       0.00  BARR  Jc55-2ab   85.8   94.0   97.9                    89.0                    180.0                382.7
            5     40       0.00  WETL  Jc55-2ab   68.4   84.0   93.5                    89.0                    180.0                382.7
            6     41   33298.56  IRRC  I-Be-2c-   68.4   84.0   93.5                   149.6                     70.0                333.5
            6     42    3487.72  RICE  I-Be-2c-   68.4   84.0   93.5                   149.6                     70.0                333.5
            6     43       0.00  IRRU  I-Be-2c-   73.0   87.0   95.0                   149.6                     70.0                333.5
            6     44  193533.58  AGRL  I-Be-2c-   73.0   87.0   95.0                   149.6                     70.0                333.5
            6     45 1887946.88  FRSE  I-Be-2c-   59.3   77.0   89.9                   149.6                     70.0                333.5
            6     46   28045.35  RNGE  I-Be-2c-   68.4   84.0   93.5                   149.6                     70.0                333.5
            6     47       0.00  BARR  I-Be-2c-   85.8   94.0   97.9                   149.6                     70.0                333.5
            6     48     329.95  WETL  I-Be-2c-   68.4   84.0   93.5                   149.6                     70.0                333.5
            7     49   69746.86  IRRC  Af50-3bc   64.3   81.0   92.0                   237.4                     30.0                283.4
            7     50   19473.42  RICE  Af50-3bc   64.3   81.0   92.0                   237.4                     30.0                283.4
            7     51       0.00  IRRU  Af50-3bc   67.0   83.0   93.1                   237.4                     30.0                283.4
            7     52  421241.53  AGRL  Af50-3bc   67.0   83.0   93.1                   237.4                     30.0                283.4
            7     53 2592729.75  FRSE  Af50-3bc   51.2   70.0   85.7                   237.4                     30.0                283.4
            7     54    2815.63  RNGE  Af50-3bc   61.7   79.0   91.0                   237.4                     30.0                283.4
            7     55       0.00  BARR  Af50-3bc   79.8   91.0   96.7                   237.4                     30.0                283.4
            7     56       0.00  WETL  Af50-3bc   61.7   79.0   91.0                   237.4                     30.0                283.4
            8     57    7941.65  IRRC  Ao90-2-3   68.4   84.0   93.5                   181.5                     70.0                328.0
            8     58     834.23  RICE  Ao90-2-3   68.4   84.0   93.5                   181.5                     70.0                328.0
            8     59       0.00  IRRU  Ao90-2-3   73.0   87.0   95.0                   181.5                     70.0                328.0
            8     60   37742.41  AGRL  Ao90-2-3   73.0   87.0   95.0                   181.5                     70.0                328.0
            8     61  421341.12  FRSE  Ao90-2-3   59.3   77.0   89.9                   181.5                     70.0                328.0
            8     62       0.00  RNGE  Ao90-2-3   68.4   84.0   93.5                   181.5                     70.0                328.0
            8     63       0.00  BARR  Ao90-2-3   85.8   94.0   97.9                   181.5                     70.0                328.0
            8     64       0.00  WETL  Ao90-2-3   68.4   84.0   93.5                   181.5                     70.0                328.0
            9     65   67131.18  IRRC  Ao90-2-3   68.4   84.0   93.5                   181.5                     70.0                328.0
            9     66    6408.26  RICE  Ao90-2-3   68.4   84.0   93.5                   181.5                     70.0                328.0
            9     67    1979.56  IRRU  Ao90-2-3   73.0   87.0   95.0                   181.5                     70.0                328.0
            9     68   99439.84  AGRL  Ao90-2-3   73.0   87.0   95.0                   181.5                     70.0                328.0
            9     69 1733415.25  FRSE  Ao90-2-3   59.3   77.0   89.9                   181.5                     70.0                328.0
            9     70    1623.92  RNGE  Ao90-2-3   68.4   84.0   93.5                   181.5                     70.0                328.0
            9     71       0.00  BARR  Ao90-2-3   85.8   94.0   97.9                   181.5                     70.0                328.0
            9     72       0.00  WETL  Ao90-2-3   68.4   84.0   93.5                   181.5                     70.0                328.0
           10     73   33126.39  IRRC  Ao90-2-3   68.4   84.0   93.5                   181.5                     70.0                328.0
           10     74   30487.95  RICE  Ao90-2-3   68.4   84.0   93.5                   181.5                     70.0                328.0
           10     75    3087.85  IRRU  Ao90-2-3   73.0   87.0   95.0                   181.5                     70.0                328.0
           10     76  108877.92  AGRL  Ao90-2-3   73.0   87.0   95.0                   181.5                     70.0                328.0
           10     77 1348963.88  FRSE  Ao90-2-3   59.3   77.0   89.9                   181.5                     70.0                328.0
           10     78     306.69  RNGE  Ao90-2-3   68.4   84.0   93.5                   181.5                     70.0                328.0
           10     79       0.00  BARR  Ao90-2-3   85.8   94.0   97.9                   181.5                     70.0                328.0
           10     80       0.00  WETL  Ao90-2-3   68.4   84.0   93.5                   181.5                     70.0                328.0
           11     81   20288.06  IRRC  Ao90-2-3   68.4   84.0   93.5                   181.5                     70.0                328.0
           11     82   31328.04  RICE  Ao90-2-3   68.4   84.0   93.5                   181.5                     70.0                328.0
           11     83    5350.83  IRRU  Ao90-2-3   73.0   87.0   95.0                   181.5                     70.0                328.0
           11     84   86600.99  AGRL  Ao90-2-3   73.0   87.0   95.0                   181.5                     70.0                328.0
           11     85 1234622.38  FRSE  Ao90-2-3   59.3   77.0   89.9                   181.5                     70.0                328.0
           11     86       0.00  RNGE  Ao90-2-3   68.4   84.0   93.5                   181.5                     70.0                328.0
           11     87       0.00  BARR  Ao90-2-3   85.8   94.0   97.9                   181.5                     70.0                328.0
           11     88       0.00  WETL  Ao90-2-3   68.4   84.0   93.5                   181.5                     70.0                328.0
           12     89  302690.78  IRRC  Ao90-2-3   68.4   84.0   93.5                   181.5                     70.0                328.0
           12     90   82785.45  RICE  Ao90-2-3   68.4   84.0   93.5                   181.5                     70.0                328.0
           12     91   12451.79  IRRU  Ao90-2-3   73.0   87.0   95.0                   181.5                     70.0                328.0
           12     92  241738.00  AGRL  Ao90-2-3   73.0   87.0   95.0                   181.5                     70.0                328.0
           12     93 1674916.50  FRSE  Ao90-2-3   59.3   77.0   89.9                   181.5                     70.0                328.0
           12     94    1058.31  RNGE  Ao90-2-3   68.4   84.0   93.5                   181.5                     70.0                328.0
           12     95       0.00  BARR  Ao90-2-3   85.8   94.0   97.9                   181.5                     70.0                328.0
           12     96       0.00  WETL  Ao90-2-3   68.4   84.0   93.5                   181.5                     70.0                328.0
           13     97    5357.79  IRRC  Ao90-2-3   68.4   84.0   93.5                   181.5                     70.0                328.0
           13     98   13821.55  RICE  Ao90-2-3   68.4   84.0   93.5                   181.5                     70.0                328.0
           13     99     437.79  IRRU  Ao90-2-3   73.0   87.0   95.0                   181.5                     70.0                328.0
           13    100   18082.61  AGRL  Ao90-2-3   73.0   87.0   95.0                   181.5                     70.0                328.0
           13    101 1080420.25  FRSE  Ao90-2-3   59.3   77.0   89.9                   181.5                     70.0                328.0
           13    102       0.00  RNGE  Ao90-2-3   68.4   84.0   93.5                   181.5                     70.0                328.0
           13    103       0.00  BARR  Ao90-2-3   85.8   94.0   97.9                   181.5                     70.0                328.0
           13    104       0.00  WETL  Ao90-2-3   68.4   84.0   93.5                   181.5                     70.0                328.0
           14    105    7304.86  IRRC  Ao90-2-3   68.4   84.0   93.5                   181.5                     70.0                328.0
           14    106   12174.00  RICE  Ao90-2-3   68.4   84.0   93.5                   181.5                     70.0                328.0
           14    107     607.23  IRRU  Ao90-2-3   73.0   87.0   95.0                   181.5                     70.0                328.0
           14    108   24198.87  AGRL  Ao90-2-3   73.0   87.0   95.0                   181.5                     70.0                328.0
           14    109  639085.38  FRSE  Ao90-2-3   59.3   77.0   89.9                   181.5                     70.0                328.0
           14    110       0.00  RNGE  Ao90-2-3   68.4   84.0   93.5                   181.5                     70.0                328.0
           14    111       0.00  BARR  Ao90-2-3   85.8   94.0   97.9                   181.5                     70.0                328.0
           14    112       0.00  WETL  Ao90-2-3   68.4   84.0   93.5                   181.5                     70.0                328.0
           15    113       0.00  IRRC  Ao90-2-3   68.4   84.0   93.5                   181.5                     70.0                328.0
           15    114       0.00  RICE  Ao90-2-3   68.4   84.0   93.5                   181.5                     70.0                328.0
           15    115       0.00  IRRU  Ao90-2-3   73.0   87.0   95.0                   181.5                     70.0                328.0
           15    116       0.00  AGRL  Ao90-2-3   73.0   87.0   95.0                   181.5                     70.0                328.0
           15    117    6446.48  FRSE  Ao90-2-3   59.3   77.0   89.9                   181.5                     70.0                328.0
           15    118       0.00  RNGE  Ao90-2-3   68.4   84.0   93.5                   181.5                     70.0                328.0
           15    119       0.00  BARR  Ao90-2-3   85.8   94.0   97.9                   181.5                     70.0                328.0
           15    120       0.00  WETL  Ao90-2-3   68.4   84.0   93.5                   181.5                     70.0                328.0
           16    121   40692.76  IRRC  Ao90-2-3   68.4   84.0   93.5                   181.5                     70.0                328.0
           16    122   35962.09  RICE  Ao90-2-3   68.4   84.0   93.5                   181.5                     70.0                328.0
           16    123    9233.31  IRRU  Ao90-2-3   73.0   87.0   95.0                   181.5                     70.0                328.0
           16    124   83354.34  AGRL  Ao90-2-3   73.0   87.0   95.0                   181.5                     70.0                328.0
           16    125 4088786.25  FRSE  Ao90-2-3   59.3   77.0   89.9                   181.5                     70.0                328.0
           16    126       0.00  RNGE  Ao90-2-3   68.4   84.0   93.5                   181.5                     70.0                328.0
           16    127       0.00  BARR  Ao90-2-3   85.8   94.0   97.9                   181.5                     70.0                328.0
           16    128       0.00  WETL  Ao90-2-3   68.4   84.0   93.5                   181.5                     70.0                328.0
           17    129   11456.73  IRRC  Ao90-2-3   68.4   84.0   93.5                   181.5                     70.0                328.0
           17    130    8147.12  RICE  Ao90-2-3   68.4   84.0   93.5                   181.5                     70.0                328.0
           17    131     873.93  IRRU  Ao90-2-3   73.0   87.0   95.0                   181.5                     70.0                328.0
           17    132   17321.09  AGRL  Ao90-2-3   73.0   87.0   95.0                   181.5                     70.0                328.0
           17    133  974863.81  FRSE  Ao90-2-3   59.3   77.0   89.9                   181.5                     70.0                328.0
           17    134       0.00  RNGE  Ao90-2-3   68.4   84.0   93.5                   181.5                     70.0                328.0
           17    135       0.00  BARR  Ao90-2-3   85.8   94.0   97.9                   181.5                     70.0                328.0
           17    136       0.00  WETL  Ao90-2-3   68.4   84.0   93.5                   181.5                     70.0                328.0
           18    137     676.86  IRRC  Ao107-2b   64.3   81.0   92.0                   177.0                    160.0                306.0
           18    138    4866.44  RICE  Ao107-2b   64.3   81.0   92.0                   177.0                    160.0                306.0
           18    139     108.15  IRRU  Ao107-2b   67.0   83.0   93.1                   177.0                    160.0                306.0
           18    140    9186.64  AGRL  Ao107-2b   67.0   83.0   93.1                   177.0                    160.0                306.0
           18    141  184309.45  FRSE  Ao107-2b   51.2   70.0   85.7                   177.0                    160.0                306.0
           18    142       0.00  RNGE  Ao107-2b   61.7   79.0   91.0                   177.0                    160.0                306.0
           18    143       0.00  BARR  Ao107-2b   79.8   91.0   96.7                   177.0                    160.0                306.0
           18    144       0.00  WETL  Ao107-2b   61.7   79.0   91.0                   177.0                    160.0                306.0
           19    145  208192.12  IRRC  Ao90-2-3   68.4   84.0   93.5                   181.5                     70.0                328.0
           19    146  181790.56  RICE  Ao90-2-3   68.4   84.0   93.5                   181.5                     70.0                328.0
           19    147   21100.57  IRRU  Ao90-2-3   73.0   87.0   95.0                   181.5                     70.0                328.0
           19    148  283430.75  AGRL  Ao90-2-3   73.0   87.0   95.0                   181.5                     70.0                328.0
           19    149 1814864.50  FRSE  Ao90-2-3   59.3   77.0   89.9                   181.5                     70.0                328.0
           19    150    3394.31  RNGE  Ao90-2-3   68.4   84.0   93.5                   181.5                     70.0                328.0
           19    151       0.00  BARR  Ao90-2-3   85.8   94.0   97.9                   181.5                     70.0                328.0
           19    152       0.00  WETL  Ao90-2-3   68.4   84.0   93.5                   181.5                     70.0                328.0
           20    153   46033.23  IRRC  Ao90-2-3   68.4   84.0   93.5                   181.5                     70.0                328.0
           20    154   28814.62  RICE  Ao90-2-3   68.4   84.0   93.5                   181.5                     70.0                328.0
           20    155   11567.01  IRRU  Ao90-2-3   73.0   87.0   95.0                   181.5                     70.0                328.0
           20    156   20050.80  AGRL  Ao90-2-3   73.0   87.0   95.0                   181.5                     70.0                328.0
           20    157 1571251.50  FRSE  Ao90-2-3   59.3   77.0   89.9                   181.5                     70.0                328.0
           20    158    3053.48  RNGE  Ao90-2-3   68.4   84.0   93.5                   181.5                     70.0                328.0
           20    159       0.00  BARR  Ao90-2-3   85.8   94.0   97.9                   181.5                     70.0                328.0
           20    160       0.00  WETL  Ao90-2-3   68.4   84.0   93.5                   181.5                     70.0                328.0
           21    161   33958.06  IRRC  Ao90-2-3   68.4   84.0   93.5                   181.5                     70.0                328.0
           21    162   32699.71  RICE  Ao90-2-3   68.4   84.0   93.5                   181.5                     70.0                328.0
           21    163    3668.95  IRRU  Ao90-2-3   73.0   87.0   95.0                   181.5                     70.0                328.0
           21    164   33620.10  AGRL  Ao90-2-3   73.0   87.0   95.0                   181.5                     70.0                328.0
           21    165 1043791.88  FRSE  Ao90-2-3   59.3   77.0   89.9                   181.5                     70.0                328.0
           21    166     999.68  RNGE  Ao90-2-3   68.4   84.0   93.5                   181.5                     70.0                328.0
           21    167       0.00  BARR  Ao90-2-3   85.8   94.0   97.9                   181.5                     70.0                328.0
           21    168       0.00  WETL  Ao90-2-3   68.4   84.0   93.5                   181.5                     70.0                328.0
           22    169  279140.62  IRRC  Ao90-2-3   68.4   84.0   93.5                   181.5                     70.0                328.0
           22    170  435349.66  RICE  Ao90-2-3   68.4   84.0   93.5                   181.5                     70.0                328.0
           22    171   11956.53  IRRU  Ao90-2-3   73.0   87.0   95.0                   181.5                     70.0                328.0
           22    172  315826.56  AGRL  Ao90-2-3   73.0   87.0   95.0                   181.5                     70.0                328.0
           22    173 4527723.50  FRSE  Ao90-2-3   59.3   77.0   89.9                   181.5                     70.0                328.0
           22    174   12996.49  RNGE  Ao90-2-3   68.4   84.0   93.5                   181.5                     70.0                328.0
           22    175     141.27  BARR  Ao90-2-3   85.8   94.0   97.9                   181.5                     70.0                328.0
           22    176       0.01  WETL  Ao90-2-3   68.4   84.0   93.5                   181.5                     70.0                328.0
           23    177   29340.28  IRRC  Ao107-2b   64.3   81.0   92.0                   177.0                    160.0                306.0
           23    178   71012.20  RICE  Ao107-2b   64.3   81.0   92.0                   177.0                    160.0                306.0
           23    179   11224.59  IRRU  Ao107-2b   67.0   83.0   93.1                   177.0                    160.0                306.0
           23    180   31601.57  AGRL  Ao107-2b   67.0   83.0   93.1                   177.0                    160.0                306.0
           23    181 1849909.00  FRSE  Ao90-2-3   59.3   77.0   89.9                   181.5                     70.0                328.0
           23    182    1080.93  RNGE  Ao107-2b   61.7   79.0   91.0                   177.0                    160.0                306.0
           23    183       0.00  BARR  Ao107-2b   79.8   91.0   96.7                   177.0                    160.0                306.0
           23    184       0.00  WETL  Ao90-2-3   68.4   84.0   93.5                   181.5                     70.0                328.0
           24    185    3846.77  IRRC  Af59-1-2   64.3   81.0   92.0                   160.2                    140.0                273.8
           24    186   19491.63  RICE  Ao90-2-3   68.4   84.0   93.5                   181.5                     70.0                328.0
           24    187     497.52  IRRU  Ao90-2-3   73.0   87.0   95.0                   181.5                     70.0                328.0
           24    188   21515.23  AGRL  Ao90-2-3   73.0   87.0   95.0                   181.5                     70.0                328.0
           24    189  405245.44  FRSE  Ao90-2-3   59.3   77.0   89.9                   181.5                     70.0                328.0
           24    190       0.00  RNGE  Ao90-2-3   68.4   84.0   93.5                   181.5                     70.0                328.0
           24    191       0.00  BARR  Ao90-2-3   85.8   94.0   97.9                   181.5                     70.0                328.0
           24    192       0.00  WETL  Ao90-2-3   68.4   84.0   93.5                   181.5                     70.0                328.0
           25    193       0.00  IRRC  Ao90-2-3   68.4   84.0   93.5                   181.5                     70.0                328.0
           25    194    1292.19  RICE  Ao90-2-3   68.4   84.0   93.5                   181.5                     70.0                328.0
           25    195       0.00  IRRU  Ao90-2-3   73.0   87.0   95.0                   181.5                     70.0                328.0
           25    196     501.46  AGRL  Ao90-2-3   73.0   87.0   95.0                   181.5                     70.0                328.0
           25    197   41459.42  FRSE  Ao90-2-3   59.3   77.0   89.9                   181.5                     70.0                328.0
           25    198       0.00  RNGE  Ao90-2-3   68.4   84.0   93.5                   181.5                     70.0                328.0
           25    199       0.00  BARR  Ao90-2-3   85.8   94.0   97.9                   181.5                     70.0                328.0
           25    200       0.00  WETL  Ao90-2-3   68.4   84.0   93.5                   181.5                     70.0                328.0
           26    201  612691.19  IRRC  Ag17-1-2   64.3   81.0   92.0                   159.0                    170.0                324.0
           26    202  745756.38  RICE  Ag17-1-2   64.3   81.0   92.0                   159.0                    170.0                324.0
           26    203    5713.17  IRRU  Ag17-1-2   67.0   83.0   93.1                   159.0                    170.0                324.0
           26    204  737944.12  AGRL  Ag17-1-2   67.0   83.0   93.1                   159.0                    170.0                324.0
           26    205 2767956.00  FRSE  Ag17-1-2   51.2   70.0   85.7                   159.0                    170.0                324.0
           26    206   58200.40  RNGE  Ag17-1-2   61.7   79.0   91.0                   159.0                    170.0                324.0
           26    207       0.00  BARR  Ag17-1-2   79.8   91.0   96.7                   159.0                    170.0                324.0
           26    208       0.00  WETL  Ag17-1-2   61.7   79.0   91.0                   159.0                    170.0                324.0
           27    209  213948.55  IRRC  Ag17-1-2   64.3   81.0   92.0                   159.0                    170.0                324.0
           27    210  161010.22  RICE  Ag17-1-2   64.3   81.0   92.0                   159.0                    170.0                324.0
           27    211    1240.20  IRRU  Ag17-1-2   67.0   83.0   93.1                   159.0                    170.0                324.0
           27    212  146732.69  AGRL  Ag17-1-2   67.0   83.0   93.1                   159.0                    170.0                324.0
           27    213 1154549.50  FRSE  Ag17-1-2   51.2   70.0   85.7                   159.0                    170.0                324.0
           27    214   22242.66  RNGE  Ag17-1-2   61.7   79.0   91.0                   159.0                    170.0                324.0
           27    215       0.00  BARR  Ag17-1-2   79.8   91.0   96.7                   159.0                    170.0                324.0
           27    216       0.00  WETL  Ag17-1-2   61.7   79.0   91.0                   159.0                    170.0                324.0
           28    217  510615.16  IRRC  Ag17-1-2   64.3   81.0   92.0                   159.0                    170.0                324.0
           28    218 1258350.12  RICE  Ag17-1-2   64.3   81.0   92.0                   159.0                    170.0                324.0
           28    219    1044.98  IRRU  Ag17-1-2   67.0   83.0   93.1                   159.0                    170.0                324.0
           28    220  893059.75  AGRL  Ag17-1-2   67.0   83.0   93.1                   159.0                    170.0                324.0
           28    221 2496659.75  FRSE  Ag17-1-2   51.2   70.0   85.7                   159.0                    170.0                324.0
           28    222  174283.94  RNGE  Ag17-1-2   61.7   79.0   91.0                   159.0                    170.0                324.0
           28    223       0.01  BARR  Ag17-1-2   79.8   91.0   96.7                   159.0                    170.0                324.0
           28    224       0.01  WETL  Ag17-1-2   61.7   79.0   91.0                   159.0                    170.0                324.0
           29    225       0.00  IRRC  Ao90-2-3   68.4   84.0   93.5                   181.5                     70.0                328.0
           29    226       0.00  RICE  Ao90-2-3   68.4   84.0   93.5                   181.5                     70.0                328.0
           29    227       0.00  IRRU  Ao90-2-3   73.0   87.0   95.0                   181.5                     70.0                328.0
           29    228     696.41  AGRL  Ao90-2-3   73.0   87.0   95.0                   181.5                     70.0                328.0
           29    229    3288.76  FRSE  Ao90-2-3   59.3   77.0   89.9                   181.5                     70.0                328.0
           29    230       0.00  RNGE  Ao90-2-3   68.4   84.0   93.5                   181.5                     70.0                328.0
           29    231       0.00  BARR  Ao90-2-3   85.8   94.0   97.9                   181.5                     70.0                328.0
           29    232       0.00  WETL  Ao90-2-3   68.4   84.0   93.5                   181.5                     70.0                328.0
           30    233       0.00  IRRC  Ao90-2-3   68.4   84.0   93.5                   181.5                     70.0                328.0
           30    234       0.00  RICE  Ao90-2-3   68.4   84.0   93.5                   181.5                     70.0                328.0
           30    235       0.00  IRRU  Ao90-2-3   73.0   87.0   95.0                   181.5                     70.0                328.0
           30    236       0.00  AGRL  Ao90-2-3   73.0   87.0   95.0                   181.5                     70.0                328.0
           30    237    6544.65  FRSE  Ao90-2-3   59.3   77.0   89.9                   181.5                     70.0                328.0
           30    238       0.00  RNGE  Ao90-2-3   68.4   84.0   93.5                   181.5                     70.0                328.0
           30    239       0.00  BARR  Ao90-2-3   85.8   94.0   97.9                   181.5                     70.0                328.0
           30    240       0.00  WETL  Ao90-2-3   68.4   84.0   93.5                   181.5                     70.0                328.0
           31    241   42222.32  IRRC  Ao90-2-3   68.4   84.0   93.5                   181.5                     70.0                328.0
           31    242   72709.65  RICE  Ao90-2-3   68.4   84.0   93.5                   181.5                     70.0                328.0
           31    243    4541.96  IRRU  Ao90-2-3   73.0   87.0   95.0                   181.5                     70.0                328.0
           31    244   52595.73  AGRL  Ao90-2-3   73.0   87.0   95.0                   181.5                     70.0                328.0
           31    245 1049879.62  FRSE  Ao90-2-3   59.3   77.0   89.9                   181.5                     70.0                328.0
           31    246   18018.91  RNGE  Ao90-2-3   68.4   84.0   93.5                   181.5                     70.0                328.0
           31    247       0.00  BARR  Ao90-2-3   85.8   94.0   97.9                   181.5                     70.0                328.0
           31    248       0.00  WETL  Ao90-2-3   68.4   84.0   93.5                   181.5                     70.0                328.0
           32    249    9605.58  IRRC  Af61-1-2   68.4   84.0   93.5                   170.4                    160.0                263.6
           32    250    9166.50  RICE  Af61-1-2   68.4   84.0   93.5                   170.4                    160.0                263.6
           32    251    1333.91  IRRU  Af61-1-2   73.0   87.0   95.0                   170.4                    160.0                263.6
           32    252    5698.22  AGRL  Af61-1-2   73.0   87.0   95.0                   170.4                    160.0                263.6
           32    253  389647.47  FRSE  Af61-1-2   59.3   77.0   89.9                   170.4                    160.0                263.6
           32    254    7983.73  RNGE  Af61-1-2   68.4   84.0   93.5                   170.4                    160.0                263.6
           32    255       0.00  BARR  Af61-1-2   85.8   94.0   97.9                   170.4                    160.0                263.6
           32    256       0.00  WETL  Af61-1-2   68.4   84.0   93.5                   170.4                    160.0                263.6
           33    257     823.57  IRRC  Af60-1-2   64.3   81.0   92.0                   140.0                    160.0                331.7
           33    258    4315.81  RICE  Af60-1-2   64.3   81.0   92.0                   140.0                    160.0                331.7
           33    259     177.80  IRRU  Af60-1-2   67.0   83.0   93.1                   140.0                    160.0                331.7
           33    260    1757.39  AGRL  Af60-1-2   67.0   83.0   93.1                   140.0                    160.0                331.7
           33    261  242624.92  FRSE  Af60-1-2   51.2   70.0   85.7                   140.0                    160.0                331.7
           33    262    1845.06  RNGE  Af60-1-2   61.7   79.0   91.0                   140.0                    160.0                331.7
           33    263       0.00  BARR  Af60-1-2   79.8   91.0   96.7                   140.0                    160.0                331.7
           33    264       0.00  WETL  Af60-1-2   61.7   79.0   91.0                   140.0                    160.0                331.7
           34    265       0.00  IRRC  Ao90-2-3   68.4   84.0   93.5                   181.5                     70.0                328.0
           34    266       0.00  RICE  Ao90-2-3   68.4   84.0   93.5                   181.5                     70.0                328.0
           34    267       0.00  IRRU  Ao90-2-3   73.0   87.0   95.0                   181.5                     70.0                328.0
           34    268       0.00  AGRL  Ao90-2-3   73.0   87.0   95.0                   181.5                     70.0                328.0
           34    269    3865.77  FRSE  Ao90-2-3   59.3   77.0   89.9                   181.5                     70.0                328.0
           34    270       0.00  RNGE  Ao90-2-3   68.4   84.0   93.5                   181.5                     70.0                328.0
           34    271       0.00  BARR  Ao90-2-3   85.8   94.0   97.9                   181.5                     70.0                328.0
           34    272       0.00  WETL  Ao90-2-3   68.4   84.0   93.5                   181.5                     70.0                328.0
           35    273    7670.04  IRRC  Ao90-2-3   68.4   84.0   93.5                   181.5                     70.0                328.0
           35    274   30204.53  RICE  Ao90-2-3   68.4   84.0   93.5                   181.5                     70.0                328.0
           35    275    2870.57  IRRU  Ao90-2-3   73.0   87.0   95.0                   181.5                     70.0                328.0
           35    276   19981.74  AGRL  Ao90-2-3   73.0   87.0   95.0                   181.5                     70.0                328.0
           35    277 2814057.00  FRSE  Ao90-2-3   59.3   77.0   89.9                   181.5                     70.0                328.0
           35    278     194.69  RNGE  Ao90-2-3   68.4   84.0   93.5                   181.5                     70.0                328.0
           35    279       0.00  BARR  Ao90-2-3   85.8   94.0   97.9                   181.5                     70.0                328.0
           35    280       0.00  WETL  Ao90-2-3   68.4   84.0   93.5                   181.5                     70.0                328.0
           36    281   28386.33  IRRC  Ao90-2-3   68.4   84.0   93.5                   181.5                     70.0                328.0
           36    282   19800.79  RICE  Ao90-2-3   68.4   84.0   93.5                   181.5                     70.0                328.0
           36    283   52953.91  IRRU  Ao90-2-3   73.0   87.0   95.0                   181.5                     70.0                328.0
           36    284  101694.27  AGRL  Ao90-2-3   73.0   87.0   95.0                   181.5                     70.0                328.0
           36    285 1687816.00  FRSE  Ao90-2-3   59.3   77.0   89.9                   181.5                     70.0                328.0
           36    286     290.22  RNGE  Ao90-2-3   68.4   84.0   93.5                   181.5                     70.0                328.0
           36    287       0.00  BARR  Ao90-2-3   85.8   94.0   97.9                   181.5                     70.0                328.0
           36    288       0.00  WETL  Ao90-2-3   68.4   84.0   93.5                   181.5                     70.0                328.0
           37    289   45404.62  IRRC  Ao90-2-3   68.4   84.0   93.5                   181.5                     70.0                328.0
           37    290   61566.73  RICE  Ao90-2-3   68.4   84.0   93.5                   181.5                     70.0                328.0
           37    291   65614.27  IRRU  Ao90-2-3   73.0   87.0   95.0                   181.5                     70.0                328.0
           37    292  418941.84  AGRL  Ao90-2-3   73.0   87.0   95.0                   181.5                     70.0                328.0
           37    293 2477974.75  FRSE  Ao90-2-3   59.3   77.0   89.9                   181.5                     70.0                328.0
           37    294    1947.67  RNGE  Ao90-2-3   68.4   84.0   93.5                   181.5                     70.0                328.0
[...]
           32    255       0.00        31.000         0.048   1000.000   0.020      750.000  0.050    0.000     0.000
           32    256       0.00        31.000         0.048   1000.000   0.020      750.000  0.050    0.000     0.000
           33    257     823.57        31.000         0.048   1000.000   0.020      750.000  0.050    0.000     0.000
           33    258    4315.81        31.000         0.048   1000.000   0.020      750.000  0.050    0.000     0.000
           33    259     177.80        31.000         0.048   1000.000   0.020      750.000  0.050    0.000     0.000
           33    260    1757.39        31.000         0.048   1000.000   0.020      750.000  0.050    0.000     0.000
           33    261  242624.92        31.000         0.048   1000.000   0.020      750.000  0.050    0.000     0.000
           33    262    1845.06        31.000         0.048   1000.000   0.020      750.000  0.050    0.000     0.000
           33    263       0.00        31.000         0.048   1000.000   0.020      750.000  0.050    0.000     0.000
           33    264       0.00        31.000         0.048   1000.000   0.020      750.000  0.050    0.000     0.000
           34    265       0.00        31.000         0.048   1000.000   0.020      750.000  0.050    0.000     0.000
           34    266       0.00        31.000         0.048   1000.000   0.020      750.000  0.050    0.000     0.000
           34    267       0.00        31.000         0.048   1000.000   0.020      750.000  0.050    0.000     0.000
           34    268       0.00        31.000         0.048   1000.000   0.020      750.000  0.050    0.000     0.000
           34    269    3865.77        31.000         0.048   1000.000   0.020      750.000  0.050    0.000     0.000
           34    270       0.00        31.000         0.048   1000.000   0.020      750.000  0.050    0.000     0.000
           34    271       0.00        31.000         0.048   1000.000   0.020      750.000  0.050    0.000     0.000
           34    272       0.00        31.000         0.048   1000.000   0.020      750.000  0.050    0.000     0.000
           35    273    7670.04        31.000         0.048   1000.000   0.020      750.000  0.050    0.000     0.000
           35    274   30204.53        31.000         0.048   1000.000   0.020      750.000  0.050    0.000     0.000
           35    275    2870.57        31.000         0.048   1000.000   0.020      750.000  0.050    0.000     0.000
           35    276   19981.74        31.000         0.048   1000.000   0.020      750.000  0.050    0.000     0.000
           35    277 2814057.00        31.000         0.048   1000.000   0.020      750.000  0.050    0.000     0.000
           35    278     194.69        31.000         0.048   1000.000   0.020      750.000  0.050    0.000     0.000
           35    279       0.00        31.000         0.048   1000.000   0.020      750.000  0.050    0.000     0.000
           35    280       0.00        31.000         0.048   1000.000   0.020      750.000  0.050    0.000     0.000
           36    281   28386.33        31.000         0.048   1000.000   0.020      750.000  0.050    0.000     0.000
           36    282   19800.79        31.000         0.048   1000.000   0.020      750.000  0.050    0.000     0.000
           36    283   52953.91        31.000         0.048   1000.000   0.020      750.000  0.050    0.000     0.000
           36    284  101694.27        31.000         0.048   1000.000   0.020      750.000  0.050    0.000     0.000
           36    285 1687816.00        31.000         0.048   1000.000   0.020      750.000  0.050    0.000     0.000
           36    286     290.22        31.000         0.048   1000.000   0.020      750.000  0.050    0.000     0.000
           36    287       0.00        31.000         0.048   1000.000   0.020      750.000  0.050    0.000     0.000
           36    288       0.00        31.000         0.048   1000.000   0.020      750.000  0.050    0.000     0.000
           37    289   45404.62        31.000         0.048   1000.000   0.020      750.000  0.050    0.000     0.000
           37    290   61566.73        31.000         0.048   1000.000   0.020      750.000  0.050    0.000     0.000
           37    291   65614.27        31.000         0.048   1000.000   0.020      750.000  0.050    0.000     0.000
           37    292  418941.84        31.000         0.048   1000.000   0.020      750.000  0.050    0.000     0.000
           37    293 2477974.75        31.000         0.048   1000.000   0.020      750.000  0.050    0.000     0.000
           37    294    1947.67        31.000         0.048   1000.000   0.020      750.000  0.050    0.000     0.000
           37    295       0.00        31.000         0.048   1000.000   0.020      750.000  0.050    0.000     0.000
           37    296       0.00        31.000         0.048   1000.000   0.020      750.000  0.050    0.000     0.000
           38    297      52.20        31.000         0.048   1000.000   0.020      750.000  0.050    0.000     0.000
           38    298    1434.05        31.000         0.048   1000.000   0.020      750.000  0.050    0.000     0.000
           38    299      27.59        31.000         0.048   1000.000   0.020      750.000  0.050    0.000     0.000
           38    300     516.30        31.000         0.048   1000.000   0.020      750.000  0.050    0.000     0.000
           38    301   39967.07        31.000         0.048   1000.000   0.020      750.000  0.050    0.000     0.000
           38    302       0.00        31.000         0.048   1000.000   0.020      750.000  0.050    0.000     0.000
           38    303       0.00        31.000         0.048   1000.000   0.020      750.000  0.050    0.000     0.000
           38    304       0.00        31.000         0.048   1000.000   0.020      750.000  0.050    0.000     0.000
           39    305       0.00        31.000         0.048   1000.000   0.020      750.000  0.050    0.000     0.000
           39    306       0.00        31.000         0.048   1000.000   0.020      750.000  0.050    0.000     0.000
           39    307       0.00        31.000         0.048   1000.000   0.020      750.000  0.050    0.000     0.000
           39    308       0.00        31.000         0.048   1000.000   0.020      750.000  0.050    0.000     0.000
           39    309     834.00        31.000         0.048   1000.000   0.020      750.000  0.050    0.000     0.000
           39    310       0.00        31.000         0.048   1000.000   0.020      750.000  0.050    0.000     0.000
           39    311       0.00        31.000         0.048   1000.000   0.020      750.000  0.050    0.000     0.000
           39    312       0.00        31.000         0.048   1000.000   0.020      750.000  0.050    0.000     0.000
           40    313     794.52        31.000         0.048   1000.000   0.020      750.000  0.050    0.000     0.000
           40    314   42547.11        31.000         0.048   1000.000   0.020      750.000  0.050    0.000     0.000
           40    315     169.38        31.000         0.048   1000.000   0.020      750.000  0.050    0.000     0.000
           40    316   18145.21        31.000         0.048   1000.000   0.020      750.000  0.050    0.000     0.000
           40    317 1591667.75        31.000         0.048   1000.000   0.020      750.000  0.050    0.000     0.000
           40    318    8440.83        31.000         0.048   1000.000   0.020      750.000  0.050    0.000     0.000
           40    319       0.00        31.000         0.048   1000.000   0.020      750.000  0.050    0.000     0.000
           40    320       0.00        31.000         0.048   1000.000   0.020      750.000  0.050    0.000     0.000
           41    321    1863.63        31.000         0.048   1000.000   0.020      750.000  0.050    0.000     0.000
           41    322   22174.03        31.000         0.048   1000.000   0.020      750.000  0.050    0.000     0.000
           41    323    1522.57        31.000         0.048   1000.000   0.020      750.000  0.050    0.000     0.000
           41    324   43836.36        31.000         0.048   1000.000   0.020      750.000  0.050    0.000     0.000
           41    325  555447.88        31.000         0.048   1000.000   0.020      750.000  0.050    0.000     0.000
           41    326    2779.64        31.000         0.048   1000.000   0.020      750.000  0.050    0.000     0.000
           41    327       0.00        31.000         0.048   1000.000   0.020      750.000  0.050    0.000     0.000
           41    328       0.00        31.000         0.048   1000.000   0.020      750.000  0.050    0.000     0.000
           42    329   13763.77        31.000         0.048   1000.000   0.020      750.000  0.050    0.000     0.000
           42    330   63281.94        31.000         0.048   1000.000   0.020      750.000  0.050    0.000     0.000
           42    331     553.46        31.000         0.048   1000.000   0.020      750.000  0.050    0.000     0.000
           42    332   54119.47        31.000         0.048   1000.000   0.020      750.000  0.050    0.000     0.000
           42    333  197710.69        31.000         0.048   1000.000   0.020      750.000  0.050    0.000     0.000
           42    334   28937.21        31.000         0.048   1000.000   0.020      750.000  0.050    0.000     0.000
           42    335       0.00        31.000         0.048   1000.000   0.020      750.000  0.050    0.000     0.000
           42    336       0.00        31.000         0.048   1000.000   0.020      750.000  0.050    0.000     0.000
           43    337  200479.05        31.000         0.048   1000.000   0.020      750.000  0.050    0.000     0.000
           43    338  757893.19        31.000         0.048   1000.000   0.020      750.000  0.050    0.000     0.000
           43    339   10344.45        31.000         0.048   1000.000   0.020      750.000  0.050    0.000     0.000
           43    340  326706.41        31.000         0.048   1000.000   0.020      750.000  0.050    0.000     0.000
           43    341 4566114.00        31.000         0.048   1000.000   0.020      750.000  0.050    0.000     0.000
           43    342  214569.95        31.000         0.048   1000.000   0.020      750.000  0.050    0.000     0.000
           43    343     125.04        31.000         0.048   1000.000   0.020      750.000  0.050    0.000     0.000
           43    344       0.01        31.000         0.048   1000.000   0.020      750.000  0.050    0.000     0.000
           44    345   10138.84        31.000         0.048   1000.000   0.020      750.000  0.050    0.000     0.000
           44    346  114371.44        31.000         0.048   1000.000   0.020      750.000  0.050    0.000     0.000
           44    347     216.64        31.000         0.048   1000.000   0.020      750.000  0.050    0.000     0.000
           44    348   42127.13        31.000         0.048   1000.000   0.020      750.000  0.050    0.000     0.000
           44    349 1981640.38        31.000         0.048   1000.000   0.020      750.000  0.050    0.000     0.000
           44    350   40741.89        31.000         0.048   1000.000   0.020      750.000  0.050    0.000     0.000
           44    351       0.00        31.000         0.048   1000.000   0.020      750.000  0.050    0.000     0.000
           44    352       0.00        31.000         0.048   1000.000   0.020      750.000  0.050    0.000     0.000
           45    353   38145.36        31.000         0.048   1000.000   0.020      750.000  0.050    0.000     0.000
           45    354   97568.55        31.000         0.048   1000.000   0.020      750.000  0.050    0.000     0.000
           45    355     761.23        31.000         0.048   1000.000   0.020      750.000  0.050    0.000     0.000
           45    356   40695.48        31.000         0.048   1000.000   0.020      750.000  0.050    0.000     0.000
           45    357  176385.88        31.000         0.048   1000.000   0.020      750.000  0.050    0.000     0.000
           45    358  154845.27        31.000         0.048   1000.000   0.020      750.000  0.050    0.000     0.000
           45    359       0.00        31.000         0.048   1000.000   0.020      750.000  0.050    0.000     0.000
           45    360       0.00        31.000         0.048   1000.000   0.020      750.000  0.050    0.000     0.000
           46    361   37440.63        31.000         0.048   1000.000   0.020      750.000  0.050    0.000     0.000
           46    362  171220.53        31.000         0.048   1000.000   0.020      750.000  0.050    0.000     0.000
           46    363     325.33        31.000         0.048   1000.000   0.020      750.000  0.050    0.000     0.000
           46    364   25092.50        31.000         0.048   1000.000   0.020      750.000  0.050    0.000     0.000
           46    365    9746.40        31.000         0.048   1000.000   0.020      750.000  0.050    0.000     0.000
           46    366  134872.91        31.000         0.048   1000.000   0.020      750.000  0.050    0.000     0.000
           46    367       0.00        31.000         0.048   1000.000   0.020      750.000  0.050    0.000     0.000
           46    368       0.00        31.000         0.048   1000.000   0.020      750.000  0.050    0.000     0.000
           47    369 1187138.25        31.000         0.048   1000.000   0.020      750.000  0.050    0.000     0.000
           47    370  328131.19        31.000         0.048   1000.000   0.020      750.000  0.050    0.000     0.000
           47    371  131843.69        31.000         0.048   1000.000   0.020      750.000  0.050    0.000     0.000
           47    372   63466.03        31.000         0.048   1000.000   0.020      750.000  0.050    0.000     0.000
           47    373       0.00        31.000         0.048   1000.000   0.020      750.000  0.050    0.000     0.000
           47    374       0.00        31.000         0.048   1000.000   0.020      750.000  0.050    0.000     0.000
           47    375       0.00        31.000         0.048   1000.000   0.020      750.000  0.050    0.000     0.000
           47    376       0.00        31.000         0.048   1000.000   0.020      750.000  0.050    0.000     0.000

         Tributary/Main Channel Characteristics
              |--------------Tributary--------------------|---------------------Main---------------------------|
          Sub  Length(km) Slope Width(m) Cond(mm/hr)     N Length(km) Slope Width(m) Depth(m) Cond(mm/hr)     N
            1      108.44 0.001   448.35      0.0000 0.014     108.44 0.001   448.35     6.43      0.0000 0.014
            2      244.31 0.001   713.50      0.0000 0.014     244.31 0.001   713.50     8.76      0.0000 0.014
            3        0.13 3.183   579.53      0.0000 0.014       0.13 3.183  1135.11    11.94      0.0000 0.014
            4      119.21 0.001   151.54      0.0000 0.014     119.21 0.001  1158.70    12.10      0.0000 0.014
            5       87.65 0.001   161.94      0.0000 0.014      87.65 0.001  1184.67    12.28      0.0000 0.014
            6      311.78 0.000   512.44      0.0000 0.014     311.78 0.000  1352.70    13.42      0.0000 0.014
            7      371.12 0.000   639.60      0.0000 0.014     371.12 0.000  1573.79    14.84      0.0000 0.014
            8      104.66 0.000   205.43      0.0000 0.014     104.66 0.000  1605.29    15.04      0.0000 0.014
            9      172.32 0.000   477.76      0.0000 0.014     172.32 0.000  1729.88    15.81      0.0000 0.014
           10       90.23 0.000   417.38      0.0000 0.014      90.23 0.000   417.38     6.13      0.0000 0.014
           11      183.59 0.000   392.80      0.0000 0.014     183.59 0.000  1908.57    16.88      0.0000 0.014
           12      105.21 0.000   536.28      0.0000 0.014     105.21 0.000  2043.45    17.67      0.0000 0.014
           13       91.52 0.000   346.48      0.0000 0.014      91.52 0.000  2106.49    18.03      0.0000 0.014
           14      150.25 0.000   257.86      0.0000 0.014     150.25 0.000  2144.41    18.24      0.0000 0.014
           15        4.91 0.001    15.71      0.0000 0.014       4.91 0.001  2144.76    18.25      0.0000 0.014
           16      130.35 0.000   772.89      0.0000 0.014     130.35 0.000  2371.68    19.51      0.0000 0.014
           17      126.79 0.000   326.49      0.0000 0.014     126.79 0.000  2423.53    19.79      0.0000 0.014
           18       86.24 0.000   123.05      0.0000 0.014      86.24 0.000  2433.64    19.85      0.0000 0.014
           19      265.75 0.000   563.22      0.0000 0.014     265.75 0.000  2558.89    20.52      0.0000 0.014
           20      167.06 0.000   442.48      0.0000 0.014     167.06 0.000   442.48     6.37      0.0000 0.014
           21      139.57 0.000   352.15      0.0000 0.014     139.57 0.000  2695.21    21.25      0.0000 0.014
           22       43.12 0.000   909.32      0.0000 0.014      43.12 0.000  2951.57    22.57      0.0000 0.014
           23      113.44 0.000   490.28      0.0000 0.014     113.44 0.000   490.28     6.82      0.0000 0.014
           24      116.01 0.000   200.85      0.0000 0.014     116.01 0.000  3059.25    23.12      0.0000 0.014
           25       24.91 0.000    49.23      0.0000 0.014      24.91 0.000  3061.13    23.13      0.0000 0.014
           26      371.20 0.000   843.73      0.0000 0.014     371.20 0.000   843.73     9.80      0.0000 0.014
           27      116.85 0.000   445.47      0.0000 0.014     116.85 0.000  1436.39    13.97      0.0000 0.014
           28      295.20 0.000   884.75      0.0000 0.014     295.20 0.000   884.75    10.11      0.0000 0.014
           29        1.61 0.001    11.77      0.0000 0.014       1.61 0.001  1436.68    13.97      0.0000 0.014
           30       10.72 0.001    15.85      0.0000 0.014      10.72 0.001  3555.81    25.56      0.0000 0.014
           31      141.23 0.000   368.67      0.0000 0.014     141.23 0.000  3604.41    25.79      0.0000 0.014
           32       50.01 0.000   193.49      0.0000 0.014      50.01 0.000  3620.90    25.87      0.0000 0.014
           33       51.82 0.000   141.57      0.0000 0.014      51.82 0.000  3630.68    25.91      0.0000 0.014
           34        5.09 0.001    11.56      0.0000 0.014       5.09 0.001  3630.83    25.92      0.0000 0.014
           35      244.11 0.000   610.62      0.0000 0.014     244.11 0.000   610.62     7.90      0.0000 0.014
           36      163.75 0.000   474.89      0.0000 0.014     163.75 0.000   474.89     6.68      0.0000 0.014
           37      248.28 0.000   635.33      0.0000 0.014     248.28 0.000   635.33     8.11      0.0000 0.014
           38       31.91 0.000    48.36      0.0000 0.014      31.91 0.000   851.53     9.86      0.0000 0.014
           39        6.18 0.001     4.61      0.0000 0.014       6.18 0.001  1118.18    11.82      0.0000 0.014
           40      172.73 0.000   439.47      0.0000 0.014     172.73 0.000  3989.62    27.59      0.0000 0.014
           41       21.94 0.001   245.02      0.0000 0.014      21.94 0.001  4012.46    27.70      0.0000 0.014
           42      160.01 0.001   175.06      0.0000 0.014     160.01 0.001  4025.47    27.76      0.0000 0.014
           43      280.78 0.000   956.69      0.0000 0.014     280.78 0.000   956.69    10.65      0.0000 0.014
           44       61.40 0.000   518.52      0.0000 0.014      61.40 0.000   518.52     7.08      0.0000 0.014
           45       95.56 0.001   215.93      0.0000 0.014      95.56 0.001  1192.63    12.34      0.0000 0.014
           46       93.63 0.000   180.95      0.0000 0.014      93.63 0.000  4348.63    29.23      0.0000 0.014
           47      214.98 0.000   447.17      0.0000 0.014     214.98 0.000  4407.26    29.49      0.0000 0.014
