1
    SWAT May 6 2015    VER 2015/Rev 637                                                                  0/ 0/   0      0: 0: 0

    General Input/Output section (file.cio):                                        
    11/6/2015 12:00:00 AM ARCGIS-SWAT interface AV                                  
                                                                                    


           RES  MON    VOLUMEm3  FLOW_INcms FLOW_OUTcms    PRECIPm3      EVAPm3   SEEPAGEm3  SED_INtons SED_OUTtons SED_CONCppm   ORGN_INkg  ORGN_OUTkg RES_ORGNppm   ORGP_INkg  ORGP_OUTkg RES_ORGPppm    NO3_INkg   NO3_OUTkg  RES_NO3ppm    NO2_INkg   NO2_OUTkg  RES_NO2ppm    NH3_INkg   NH3_OUTkg  RES_NH3ppm   MINP_INkg  MINP_OUTkg RES_MINPppm   CHLA_INkg  CHLA_OUTkgSECCHIDEPTHm   PEST_INmg  REACTPSTmg    VOLPSTmg  SETTLPSTmgRESUSP_PSTmgDIFFUSEPSTmgREACBEDPSTmg   BURYPSTmg  PEST_OUTmgPSTCNCWmg/m3PSTCNCBmg/m3
RES          1    1  0.9887E+10  0.0000E+00  0.0000E+00  0.3199E+05  0.1289E+08  0.0000E+00  0.0000E+00  0.0000E+00  0.4000E+01  0.0000E+00  0.0000E+00  0.0000E+00  0.0000E+00  0.0000E+00  0.0000E+00  0.0000E+00  0.0000E+00  0.0000E+00  0.0000E+00  0.0000E+00  0.0000E+00  0.0000E+00  0.0000E+00  0.0000E+00  0.0000E+00  0.0000E+00  0.0000E+00  0.0000E+00  0.0000E+00  0.0000E+00  0.0000E+00  0.0000E+00  0.0000E+00  0.0000E+00  0.0000E+00  0.0000E+00  0.0000E+00  0.0000E+00  0.0000E+00  0.0000E+00  0.0000E+00
RES          2    1  0.9915E+10  0.9202E+01  0.5143E+01  0.7543E+07  0.3496E+07  0.0000E+00  0.2941E+06  0.5503E+02  0.3997E+01  0.9229E+06  0.3202E+03  0.1360E-01  0.2890E+06  0.5430E+01  0.2977E-03  0.3534E+05  0.1139E+02  0.4846E-03  0.1239E+05  0.3369E+01  0.1152E-03  0.2463E+06  0.8743E+02  0.3569E-02  0.1287E+06  0.3258E+01  0.1247E-03  0.0000E+00  0.4888E+01  0.8446E+01  0.0000E+00  0.0000E+00  0.0000E+00  0.0000E+00  0.0000E+00  0.0000E+00  0.0000E+00  0.0000E+00  0.0000E+00  0.0000E+00  0.0000E+00
RES          3    1  0.9910E+10  0.5468E+01  0.1886E+01  0.4331E+07  0.3953E+07  0.0000E+00  0.1027E+06  0.2019E+02  0.3999E+01  0.2361E+06  0.5210E+02  0.4021E-02  0.7522E+05  0.3165E+01  0.3185E-03  0.8726E+04  0.2114E+01  0.1705E-03  0.4351E+03  0.4717E-01  0.2353E-05  0.2791E+05  0.4732E+01  0.2743E-03  0.2305E+05  0.1128E+01  0.8541E-04  0.0000E+00  0.2453E+01  0.8396E+01  0.0000E+00  0.0000E+00  0.0000E+00  0.0000E+00  0.0000E+00  0.0000E+00  0.0000E+00  0.0000E+00  0.0000E+00  0.0000E+00  0.0000E+00
RES          4    1  0.9898E+10  0.6836E-02  0.0000E+00  0.2686E+07  0.4901E+07  0.0000E+00  0.4074E+00  0.0000E+00  0.4000E+01  0.4720E+01  0.0000E+00  0.1994E-07  0.1289E+01  0.0000E+00  0.5312E-08  0.5552E+00  0.0000E+00  0.4588E-08  0.3790E-03  0.0000E+00  0.1187E-11  0.7835E-01  0.0000E+00  0.4690E-09  0.2813E-01  0.0000E+00  0.1969E-09  0.0000E+00  0.0000E+00  0.2082E+03  0.0000E+00  0.0000E+00  0.0000E+00  0.0000E+00  0.0000E+00  0.0000E+00  0.0000E+00  0.0000E+00  0.0000E+00  0.0000E+00  0.0000E+00
RES          5    1  0.9897E+10  0.0000E+00  0.0000E+00  0.4997E+07  0.7569E+07  0.0000E+00  0.0000E+00  0.0000E+00  0.4000E+01  0.0000E+00  0.0000E+00  0.0000E+00  0.0000E+00  0.0000E+00  0.0000E+00  0.0000E+00  0.0000E+00  0.0000E+00  0.0000E+00  0.0000E+00  0.0000E+00  0.0000E+00  0.0000E+00  0.0000E+00  0.0000E+00  0.0000E+00  0.0000E+00  0.0000E+00  0.0000E+00  0.0000E+00  0.0000E+00  0.0000E+00  0.0000E+00  0.0000E+00  0.0000E+00  0.0000E+00  0.0000E+00  0.0000E+00  0.0000E+00  0.0000E+00  0.0000E+00
RES          6    1  0.9895E+10  0.0000E+00  0.0000E+00  0.4411E+07  0.9522E+07  0.0000E+00  0.0000E+00  0.0000E+00  0.4000E+01  0.0000E+00  0.0000E+00  0.0000E+00  0.0000E+00  0.0000E+00  0.0000E+00  0.0000E+00  0.0000E+00  0.0000E+00  0.0000E+00  0.0000E+00  0.0000E+00  0.0000E+00  0.0000E+00  0.0000E+00  0.0000E+00  0.0000E+00  0.0000E+00  0.0000E+00  0.0000E+00  0.0000E+00  0.0000E+00  0.0000E+00  0.0000E+00  0.0000E+00  0.0000E+00  0.0000E+00  0.0000E+00  0.0000E+00  0.0000E+00  0.0000E+00  0.0000E+00
RES          7    1  0.9893E+10  0.0000E+00  0.0000E+00  0.3425E+07  0.1020E+08  0.0000E+00  0.0000E+00  0.0000E+00  0.4000E+01  0.0000E+00  0.0000E+00  0.0000E+00  0.0000E+00  0.0000E+00  0.0000E+00  0.0000E+00  0.0000E+00  0.0000E+00  0.0000E+00  0.0000E+00  0.0000E+00  0.0000E+00  0.0000E+00  0.0000E+00  0.0000E+00  0.0000E+00  0.0000E+00  0.0000E+00  0.0000E+00  0.0000E+00  0.0000E+00  0.0000E+00  0.0000E+00  0.0000E+00  0.0000E+00  0.0000E+00  0.0000E+00  0.0000E+00  0.0000E+00  0.0000E+00  0.0000E+00
RES          8    1  0.9892E+10  0.0000E+00  0.0000E+00  0.2732E+07  0.1088E+08  0.0000E+00  0.0000E+00  0.0000E+00  0.4000E+01  0.0000E+00  0.0000E+00  0.0000E+00  0.0000E+00  0.0000E+00  0.0000E+00  0.0000E+00  0.0000E+00  0.0000E+00  0.0000E+00  0.0000E+00  0.0000E+00  0.0000E+00  0.0000E+00  0.0000E+00  0.0000E+00  0.0000E+00  0.0000E+00  0.0000E+00  0.0000E+00  0.0000E+00  0.0000E+00  0.0000E+00  0.0000E+00  0.0000E+00  0.0000E+00  0.0000E+00  0.0000E+00  0.0000E+00  0.0000E+00  0.0000E+00  0.0000E+00
RES          9    1  0.9888E+10  0.0000E+00  0.0000E+00  0.3199E+05  0.1154E+08  0.0000E+00  0.0000E+00  0.0000E+00  0.4000E+01  0.0000E+00  0.0000E+00  0.0000E+00  0.0000E+00  0.0000E+00  0.0000E+00  0.0000E+00  0.0000E+00  0.0000E+00  0.0000E+00  0.0000E+00  0.0000E+00  0.0000E+00  0.0000E+00  0.0000E+00  0.0000E+00  0.0000E+00  0.0000E+00  0.0000E+00  0.0000E+00  0.0000E+00  0.0000E+00  0.0000E+00  0.0000E+00  0.0000E+00  0.0000E+00  0.0000E+00  0.0000E+00  0.0000E+00  0.0000E+00  0.0000E+00  0.0000E+00
RES         10    1  0.9887E+10  0.0000E+00  0.0000E+00  0.3199E+05  0.1310E+08  0.0000E+00  0.0000E+00  0.0000E+00  0.4000E+01  0.0000E+00  0.0000E+00  0.0000E+00  0.0000E+00  0.0000E+00  0.0000E+00  0.0000E+00  0.0000E+00  0.0000E+00  0.0000E+00  0.0000E+00  0.0000E+00  0.0000E+00  0.0000E+00  0.0000E+00  0.0000E+00  0.0000E+00  0.0000E+00  0.0000E+00  0.0000E+00  0.0000E+00  0.0000E+00  0.0000E+00  0.0000E+00  0.0000E+00  0.0000E+00  0.0000E+00  0.0000E+00  0.0000E+00  0.0000E+00  0.0000E+00  0.0000E+00
RES          1    2  0.9874E+10  0.0000E+00  0.0000E+00  0.1514E+07  0.1513E+08  0.0000E+00  0.0000E+00  0.0000E+00  0.4000E+01  0.0000E+00  0.0000E+00  0.0000E+00  0.0000E+00  0.0000E+00  0.0000E+00  0.0000E+00  0.0000E+00  0.0000E+00  0.0000E+00  0.0000E+00  0.0000E+00  0.0000E+00  0.0000E+00  0.0000E+00  0.0000E+00  0.0000E+00  0.0000E+00  0.0000E+00  0.0000E+00  0.0000E+00  0.0000E+00  0.0000E+00  0.0000E+00  0.0000E+00  0.0000E+00  0.0000E+00  0.0000E+00  0.0000E+00  0.0000E+00  0.0000E+00  0.0000E+00
RES          2    2  0.9934E+10  0.3194E+02  0.2745E+02  0.1158E+08  0.3978E+07  0.0000E+00  0.1147E+07  0.2741E+03  0.3986E+01  0.3025E+07  0.1759E+04  0.2560E-01  0.9199E+06  0.7286E+01  0.9587E-04  0.1081E+06  0.6725E+02  0.9948E-03  0.8288E+05  0.5079E+02  0.7284E-03  0.6996E+06  0.4225E+03  0.6142E-02  0.4652E+06  0.5085E+01  0.6621E-04  0.0000E+00  0.7573E+01  0.0000E+00  0.0000E+00  0.0000E+00  0.0000E+00  0.0000E+00  0.0000E+00  0.0000E+00  0.0000E+00  0.0000E+00  0.0000E+00  0.0000E+00  0.0000E+00
RES          3    2  0.9950E+10  0.4640E+02  0.3206E+02  0.8993E+07  0.4489E+07  0.0000E+00  0.1267E+07  0.3198E+03  0.3984E+01  0.2513E+07  0.2998E+04  0.3602E-01  0.8137E+06  0.1841E+02  0.2149E-03  0.4175E+05  0.5384E+02  0.6822E-03  0.4249E+05  0.5262E+02  0.5871E-03  0.4583E+06  0.5608E+03  0.6563E-02  0.3056E+06  0.9104E+01  0.1072E-03  0.0000E+00  0.1633E+02  0.1327E+02  0.0000E+00  0.0000E+00  0.0000E+00  0.0000E+00  0.0000E+00  0.0000E+00  0.0000E+00  0.0000E+00  0.0000E+00  0.0000E+00  0.0000E+00
RES          4    2  0.9930E+10  0.2179E+02  0.9258E+01  0.6778E+07  0.5881E+07  0.0000E+00  0.4429E+05  0.9257E+02  0.3994E+01  0.3194E+06  0.2505E+03  0.8305E-02  0.7811E+05  0.8110E+01  0.2999E-03  0.1809E+05  0.1261E+02  0.3138E-03  0.7447E+04  0.5406E+01  0.1117E-03  0.6561E+05  0.5144E+02  0.1254E-02  0.4108E+05  0.7707E+01  0.1890E-03  0.0000E+00  0.9524E+01  0.9718E+01  0.0000E+00  0.0000E+00  0.0000E+00  0.0000E+00  0.0000E+00  0.0000E+00  0.0000E+00  0.0000E+00  0.0000E+00  0.0000E+00  0.0000E+00
RES          5    2  0.9897E+10  0.2191E+00  0.0000E+00  0.8517E+07  0.9394E+07  0.0000E+00  0.1539E+04  0.0000E+00  0.4000E+01  0.9468E+04  0.0000E+00  0.2395E-03  0.2140E+04  0.0000E+00  0.4373E-04  0.2258E+03  0.0000E+00  0.4619E-05  0.9722E+00  0.0000E+00  0.4476E-08  0.7557E+03  0.0000E+00  0.2606E-04  0.2326E+03  0.0000E+00  0.1150E-05  0.0000E+00  0.0000E+00  0.1495E+02  0.0000E+00  0.0000E+00  0.0000E+00  0.0000E+00  0.0000E+00  0.0000E+00  0.0000E+00  0.0000E+00  0.0000E+00  0.0000E+00  0.0000E+00
RES          6    2  0.9890E+10  0.0000E+00  0.0000E+00  0.5879E+07  0.1127E+08  0.0000E+00  0.0000E+00  0.0000E+00  0.4000E+01  0.0000E+00  0.0000E+00  0.0000E+00  0.0000E+00  0.0000E+00  0.0000E+00  0.0000E+00  0.0000E+00  0.0000E+00  0.0000E+00  0.0000E+00  0.0000E+00  0.0000E+00  0.0000E+00  0.0000E+00  0.0000E+00  0.0000E+00  0.0000E+00  0.0000E+00  0.0000E+00  0.0000E+00  0.0000E+00  0.0000E+00  0.0000E+00  0.0000E+00  0.0000E+00  0.0000E+00  0.0000E+00  0.0000E+00  0.0000E+00  0.0000E+00  0.0000E+00
RES          7    2  0.9888E+10  0.0000E+00  0.0000E+00  0.6468E+07  0.1169E+08  0.0000E+00  0.0000E+00  0.0000E+00  0.4000E+01  0.0000E+00  0.0000E+00  0.0000E+00  0.0000E+00  0.0000E+00  0.0000E+00  0.0000E+00  0.0000E+00  0.0000E+00  0.0000E+00  0.0000E+00  0.0000E+00  0.0000E+00  0.0000E+00  0.0000E+00  0.0000E+00  0.0000E+00  0.0000E+00  0.0000E+00  0.0000E+00  0.0000E+00  0.0000E+00  0.0000E+00  0.0000E+00  0.0000E+00  0.0000E+00  0.0000E+00  0.0000E+00  0.0000E+00  0.0000E+00  0.0000E+00  0.0000E+00
RES          8    2  0.9885E+10  0.0000E+00  0.0000E+00  0.5762E+07  0.1285E+08  0.0000E+00  0.0000E+00  0.0000E+00  0.4000E+01  0.0000E+00  0.0000E+00  0.0000E+00  0.0000E+00  0.0000E+00  0.0000E+00  0.0000E+00  0.0000E+00  0.0000E+00  0.0000E+00  0.0000E+00  0.0000E+00  0.0000E+00  0.0000E+00  0.0000E+00  0.0000E+00  0.0000E+00  0.0000E+00  0.0000E+00  0.0000E+00  0.0000E+00  0.0000E+00  0.0000E+00  0.0000E+00  0.0000E+00  0.0000E+00  0.0000E+00  0.0000E+00  0.0000E+00  0.0000E+00  0.0000E+00  0.0000E+00
RES          9    2  0.9875E+10  0.0000E+00  0.0000E+00  0.1599E+05  0.1374E+08  0.0000E+00  0.0000E+00  0.0000E+00  0.4000E+01  0.0000E+00  0.0000E+00  0.0000E+00  0.0000E+00  0.0000E+00  0.0000E+00  0.0000E+00  0.0000E+00  0.0000E+00  0.0000E+00  0.0000E+00  0.0000E+00  0.0000E+00  0.0000E+00  0.0000E+00  0.0000E+00  0.0000E+00  0.0000E+00  0.0000E+00  0.0000E+00  0.0000E+00  0.0000E+00  0.0000E+00  0.0000E+00  0.0000E+00  0.0000E+00  0.0000E+00  0.0000E+00  0.0000E+00  0.0000E+00  0.0000E+00  0.0000E+00
RES         10    2  0.9873E+10  0.0000E+00  0.0000E+00  0.9593E+06  0.1528E+08  0.0000E+00  0.0000E+00  0.0000E+00  0.4000E+01  0.0000E+00  0.0000E+00  0.0000E+00  0.0000E+00  0.0000E+00  0.0000E+00  0.0000E+00  0.0000E+00  0.0000E+00  0.0000E+00  0.0000E+00  0.0000E+00  0.0000E+00  0.0000E+00  0.0000E+00  0.0000E+00  0.0000E+00  0.0000E+00  0.0000E+00  0.0000E+00  0.0000E+00  0.0000E+00  0.0000E+00  0.0000E+00  0.0000E+00  0.0000E+00  0.0000E+00  0.0000E+00  0.0000E+00  0.0000E+00  0.0000E+00  0.0000E+00
RES          1    3  0.9856E+10  0.0000E+00  0.0000E+00  0.6390E+05  0.1799E+08  0.0000E+00  0.0000E+00  0.0000E+00  0.4000E+01  0.0000E+00  0.0000E+00  0.0000E+00  0.0000E+00  0.0000E+00  0.0000E+00  0.0000E+00  0.0000E+00  0.0000E+00  0.0000E+00  0.0000E+00  0.0000E+00  0.0000E+00  0.0000E+00  0.0000E+00  0.0000E+00  0.0000E+00  0.0000E+00  0.0000E+00  0.0000E+00  0.0000E+00  0.0000E+00  0.0000E+00  0.0000E+00  0.0000E+00  0.0000E+00  0.0000E+00  0.0000E+00  0.0000E+00  0.0000E+00  0.0000E+00  0.0000E+00
RES          2    3  0.1023E+11  0.2372E+03  0.1298E+03  0.1717E+08  0.4883E+07  0.0000E+00  0.2131E+07  0.1352E+04  0.3938E+01  0.8404E+08  0.1891E+04  0.1720E-01  0.1878E+08  0.4598E+01  0.6299E-04  0.1692E+07  0.6312E+02  0.5359E-03  0.2134E+06  0.5042E+02  0.4416E-03  0.7378E+07  0.4386E+03  0.3865E-02  0.1641E+07  0.3227E+01  0.4430E-04  0.0000E+00  0.4740E+01  0.0000E+00  0.0000E+00  0.0000E+00  0.0000E+00  0.0000E+00  0.0000E+00  0.0000E+00  0.0000E+00  0.0000E+00  0.0000E+00  0.0000E+00  0.0000E+00
RES          3    3  0.1013E+11  0.1511E+03  0.8883E+02  0.1386E+08  0.5648E+07  0.0000E+00  0.1811E+07  0.9390E+03  0.3957E+01  0.3193E+07  0.8361E+04  0.4177E-01  0.1047E+07  0.6432E+02  0.2207E-03  0.3569E+05  0.1181E+03  0.5499E-03  0.3637E+05  0.1195E+03  0.5628E-03  0.4356E+06  0.1316E+04  0.6287E-02  0.2978E+06  0.2352E+02  0.8858E-04  0.0000E+00  0.5452E+02  0.1034E+02  0.0000E+00  0.0000E+00  0.0000E+00  0.0000E+00  0.0000E+00  0.0000E+00  0.0000E+00  0.0000E+00  0.0000E+00  0.0000E+00  0.0000E+00
RES          4    3  0.1001E+11  0.7622E+02  0.4589E+02  0.5212E+07  0.8484E+07  0.0000E+00  0.3358E+05  0.4884E+03  0.3976E+01  0.2399E+06  0.4612E+03  0.4291E-02  0.5767E+05  0.3280E+02  0.2778E-03  0.3769E+05  0.7132E+02  0.5937E-03  0.1352E+05  0.2535E+02  0.2238E-03  0.8067E+05  0.1528E+03  0.1381E-02  0.5087E+05  0.3080E+02  0.2555E-03  0.0000E+00  0.4082E+02  0.1068E+02  0.0000E+00  0.0000E+00  0.0000E+00  0.0000E+00  0.0000E+00  0.0000E+00  0.0000E+00  0.0000E+00  0.0000E+00  0.0000E+00  0.0000E+00
RES          5    3  0.9975E+10  0.5812E+02  0.2530E+02  0.3181E+07  0.1350E+08  0.0000E+00  0.1510E+05  0.2696E+03  0.3986E+01  0.1647E+06  0.1209E+03  0.3041E-02  0.3288E+05  0.1147E+02  0.2184E-03  0.4384E+05  0.4251E+02  0.5162E-03  0.1049E+05  0.8330E+01  0.1305E-03  0.6575E+05  0.4819E+02  0.9946E-03  0.3772E+05  0.1662E+02  0.2437E-03  0.0000E+00  0.1909E+02  0.1166E+02  0.0000E+00  0.0000E+00  0.0000E+00  0.0000E+00  0.0000E+00  0.0000E+00  0.0000E+00  0.0000E+00  0.0000E+00  0.0000E+00  0.0000E+00
RES          6    3  0.9882E+10  0.0000E+00  0.0000E+00  0.6705E+07  0.1453E+08  0.0000E+00  0.0000E+00  0.0000E+00  0.4000E+01  0.0000E+00  0.0000E+00  0.0000E+00  0.0000E+00  0.0000E+00  0.0000E+00  0.0000E+00  0.0000E+00  0.0000E+00  0.0000E+00  0.0000E+00  0.0000E+00  0.0000E+00  0.0000E+00  0.0000E+00  0.0000E+00  0.0000E+00  0.0000E+00  0.0000E+00  0.0000E+00  0.0000E+00  0.0000E+00  0.0000E+00  0.0000E+00  0.0000E+00  0.0000E+00  0.0000E+00  0.0000E+00  0.0000E+00  0.0000E+00  0.0000E+00  0.0000E+00
RES          7    3  0.9884E+10  0.1878E-01  0.0000E+00  0.1091E+08  0.1511E+08  0.0000E+00  0.9864E+03  0.0000E+00  0.4000E+01  0.4954E+04  0.0000E+00  0.3600E-03  0.1127E+04  0.0000E+00  0.5593E-04  0.4393E+02  0.0000E+00  0.2766E-05  0.0000E+00  0.0000E+00  0.0000E+00  0.4827E+03  0.0000E+00  0.3495E-04  0.3575E+01  0.0000E+00  0.1732E-06  0.0000E+00  0.0000E+00  0.2422E+02  0.0000E+00  0.0000E+00  0.0000E+00  0.0000E+00  0.0000E+00  0.0000E+00  0.0000E+00  0.0000E+00  0.0000E+00  0.0000E+00  0.0000E+00
RES          8    3  0.9881E+10  0.1556E+01  0.0000E+00  0.9072E+07  0.1651E+08  0.0000E+00  0.1127E+05  0.0000E+00  0.4000E+01  0.1504E+06  0.0000E+00  0.3199E-02  0.3290E+05  0.0000E+00  0.2268E-03  0.1084E+05  0.0000E+00  0.2297E-03  0.1328E+01  0.0000E+00  0.2896E-07  0.2364E+05  0.0000E+00  0.5237E-03  0.1469E+04  0.0000E+00  0.1102E-04  0.0000E+00  0.0000E+00  0.1337E+02  0.0000E+00  0.0000E+00  0.0000E+00  0.0000E+00  0.0000E+00  0.0000E+00  0.0000E+00  0.0000E+00  0.0000E+00  0.0000E+00  0.0000E+00
RES          9    3  0.9866E+10  0.0000E+00  0.0000E+00  0.7274E+07  0.1631E+08  0.0000E+00  0.0000E+00  0.0000E+00  0.4000E+01  0.0000E+00  0.0000E+00  0.0000E+00  0.0000E+00  0.0000E+00  0.0000E+00  0.0000E+00  0.0000E+00  0.0000E+00  0.0000E+00  0.0000E+00  0.0000E+00  0.0000E+00  0.0000E+00  0.0000E+00  0.0000E+00  0.0000E+00  0.0000E+00  0.0000E+00  0.0000E+00  0.0000E+00  0.0000E+00  0.0000E+00  0.0000E+00  0.0000E+00  0.0000E+00  0.0000E+00  0.0000E+00  0.0000E+00  0.0000E+00  0.0000E+00  0.0000E+00
RES         10    3  0.9934E+10  0.3226E+02  0.2670E+01  0.6394E+05  0.1822E+08  0.0000E+00  0.5717E+04  0.2843E+02  0.3995E+01  0.1834E+06  0.0000E+00  0.6018E-04  0.2230E+05  0.0000E+00  0.6188E-05  0.3284E+06  0.0000E+00  0.5447E-04  0.5746E+05  0.0000E+00  0.1222E-04  0.1691E+06  0.0000E+00  0.4302E-04  0.1663E+06  0.0000E+00  0.2354E-04  0.0000E+00  0.0000E+00  0.0000E+00  0.0000E+00  0.0000E+00  0.0000E+00  0.0000E+00  0.0000E+00  0.0000E+00  0.0000E+00  0.0000E+00  0.0000E+00  0.0000E+00  0.0000E+00
RES          1    4  0.9879E+10  0.6846E+01  0.0000E+00  0.2392E+08  0.1785E+08  0.0000E+00  0.2850E+05  0.0000E+00  0.3996E+01  0.3225E+06  0.0000E+00  0.1407E-02  0.5315E+05  0.0000E+00  0.3281E-04  0.3320E+05  0.0000E+00  0.1613E-03  0.2635E+04  0.0000E+00  0.1868E-04  0.2492E+06  0.0000E+00  0.1063E-02  0.6267E+05  0.0000E+00  0.3043E-04  0.0000E+00  0.0000E+00  0.0000E+00  0.0000E+00  0.0000E+00  0.0000E+00  0.0000E+00  0.0000E+00  0.0000E+00  0.0000E+00  0.0000E+00  0.0000E+00  0.0000E+00  0.0000E+00
RES          2    4  0.1107E+11  0.1295E+04  0.9749E+03  0.1367E+08  0.7479E+07  0.0000E+00  0.2149E+07  0.8790E+04  0.3585E+01  0.5191E+09  0.1467E+03  0.2612E-03  0.1172E+09  0.0000E+00  0.0000E+00  0.3027E+07  0.3161E+02  0.5670E-04  0.1443E+07  0.1196E+02  0.2136E-04  0.2169E+08  0.6422E+02  0.1144E-03  0.1016E+08  0.0000E+00  0.0000E+00  0.0000E+00  0.0000E+00  0.0000E+00  0.0000E+00  0.0000E+00  0.0000E+00  0.0000E+00  0.0000E+00  0.0000E+00  0.0000E+00  0.0000E+00  0.0000E+00  0.0000E+00  0.0000E+00
RES          3    4  0.1110E+11  0.9704E+03  0.5938E+03  0.8996E+07  0.7777E+07  0.0000E+00  0.4251E+05  0.5632E+04  0.3734E+01  0.2739E+05  0.4599E+04  0.4907E-02  0.9194E+04  0.1803E+03  0.1520E-03  0.5114E+04  0.2693E+03  0.2034E-03  0.2642E+03  0.7516E+02  0.8382E-04  0.3883E+04  0.8210E+03  0.9047E-03  0.2299E+04  0.3238E+02  0.3774E-04  0.0000E+00  0.1846E+03  0.2010E+02  0.0000E+00  0.0000E+00  0.0000E+00  0.0000E+00  0.0000E+00  0.0000E+00  0.0000E+00  0.0000E+00  0.0000E+00  0.0000E+00  0.0000E+00
RES          4    4  0.1067E+11  0.5494E+03  0.2908E+03  0.6513E+07  0.1085E+08  0.0000E+00  0.2910E+05  0.2876E+04  0.3863E+01  0.1676E+06  0.1531E+04  0.2444E-02  0.4150E+05  0.1269E+03  0.1829E-03  0.2044E+05  0.2315E+03  0.3539E-03  0.7400E+04  0.7549E+02  0.1175E-03  0.4714E+05  0.4554E+03  0.7239E-03  0.2793E+05  0.9002E+02  0.1332E-03  0.1160E+01  0.1600E+03  0.1219E+02  0.0000E+00  0.0000E+00  0.0000E+00  0.0000E+00  0.0000E+00  0.0000E+00  0.0000E+00  0.0000E+00  0.0000E+00  0.0000E+00  0.0000E+00
RES          5    4  0.1020E+11  0.2087E+03  0.1206E+03  0.1055E+08  0.1520E+08  0.0000E+00  0.4103E+05  0.1229E+04  0.3940E+01  0.3999E+06  0.9747E+03  0.2880E-02  0.8409E+05  0.4540E+02  0.1567E-03  0.6409E+05  0.1584E+03  0.5082E-03  0.2096E+05  0.4522E+02  0.1365E-03  0.1231E+06  0.2807E+03  0.8341E-03  0.6967E+05  0.4581E+02  0.1523E-03  0.3436E-01  0.6543E+02  0.1098E+02  0.0000E+00  0.0000E+00  0.0000E+00  0.0000E+00  0.0000E+00  0.0000E+00  0.0000E+00  0.0000E+00  0.0000E+00  0.0000E+00  0.0000E+00
RES          6    4  0.9871E+10  0.3025E+00  0.0000E+00  0.3986E+07  0.1560E+08  0.0000E+00  0.1046E+04  0.0000E+00  0.4000E+01  0.1311E+05  0.0000E+00  0.7704E-04  0.2055E+04  0.0000E+00  0.1005E-04  0.1622E+04  0.0000E+00  0.7017E-05  0.1356E+04  0.0000E+00  0.5704E-05  0.6841E+04  0.0000E+00  0.3317E-04  0.2912E+04  0.0000E+00  0.1038E-04  0.0000E+00  0.0000E+00  0.1247E+02  0.0000E+00  0.0000E+00  0.0000E+00  0.0000E+00  0.0000E+00  0.0000E+00  0.0000E+00  0.0000E+00  0.0000E+00  0.0000E+00  0.0000E+00
RES          7    4  0.9900E+10  0.3643E+01  0.4209E-01  0.2306E+08  0.1616E+08  0.0000E+00  0.7273E+05  0.4356E+00  0.3996E+01  0.2655E+06  0.1388E+01  0.9117E-02  0.5538E+05  0.2588E-01  0.1719E-03  0.2107E+04  0.9774E-02  0.8048E-04  0.1765E+03  0.8847E-03  0.6579E-05  0.6822E+05  0.3028E+00  0.2328E-02  0.1158E+05  0.1956E-02  0.5003E-04  0.0000E+00  0.2121E-01  0.1288E+02  0.0000E+00  0.0000E+00  0.0000E+00  0.0000E+00  0.0000E+00  0.0000E+00  0.0000E+00  0.0000E+00  0.0000E+00  0.0000E+00  0.0000E+00
RES          8    4  0.9955E+10  0.3995E+02  0.1431E+02  0.2469E+08  0.1750E+08  0.0000E+00  0.2285E+06  0.1476E+03  0.3986E+01  0.3187E+07  0.5989E+03  0.1406E-01  0.6423E+06  0.3486E+00  0.2856E-04  0.9283E+05  0.1810E+02  0.4362E-03  0.1433E+05  0.2713E+01  0.6294E-04  0.9483E+06  0.1849E+03  0.3494E-02  0.3054E+06  0.4629E-02  0.6077E-06  0.0000E+00  0.3109E+00  0.0000E+00  0.0000E+00  0.0000E+00  0.0000E+00  0.0000E+00  0.0000E+00  0.0000E+00  0.0000E+00  0.0000E+00  0.0000E+00  0.0000E+00  0.0000E+00
RES          9    4  0.9953E+10  0.3500E+02  0.6533E+01  0.2978E+08  0.1637E+08  0.0000E+00  0.5881E+06  0.6724E+02  0.3986E+01  0.6877E+07  0.1853E+03  0.3298E-02  0.1088E+07  0.0000E+00  0.1470E-04  0.2152E+06  0.2723E+01  0.1360E-03  0.5366E+05  0.3907E-01  0.3394E-04  0.2206E+07  0.6411E+02  0.1271E-02  0.1198E+07  0.0000E+00  0.1374E-04  0.0000E+00  0.0000E+00  0.0000E+00  0.0000E+00  0.0000E+00  0.0000E+00  0.0000E+00  0.0000E+00  0.0000E+00  0.0000E+00  0.0000E+00  0.0000E+00  0.0000E+00  0.0000E+00
RES         10    4  0.1025E+11  0.2529E+03  0.1312E+03  0.2379E+08  0.1807E+08  0.0000E+00  0.4552E+05  0.1328E+04  0.3923E+01  0.1159E+07  0.0000E+00  0.0000E+00  0.1431E+06  0.0000E+00  0.0000E+00  0.2657E+07  0.0000E+00  0.0000E+00  0.3557E+06  0.0000E+00  0.0000E+00  0.9330E+06  0.0000E+00  0.0000E+00  0.1194E+07  0.0000E+00  0.0000E+00  0.0000E+00  0.0000E+00  0.0000E+00  0.0000E+00  0.0000E+00  0.0000E+00  0.0000E+00  0.0000E+00  0.0000E+00  0.0000E+00  0.0000E+00  0.0000E+00  0.0000E+00  0.0000E+00
RES          1    5  0.1004E+11  0.1087E+03  0.5830E+02  0.3731E+08  0.1441E+08  0.0000E+00  0.4112E+06  0.6149E+03  0.3955E+01  0.5088E+07  0.0000E+00  0.1112E-03  0.8131E+06  0.0000E+00  0.0000E+00  0.1679E+07  0.0000E+00  0.1363E-04  0.8125E+06  0.0000E+00  0.5525E-05  0.2561E+07  0.0000E+00  0.1028E-03  0.1676E+07  0.0000E+00  0.0000E+00  0.0000E+00  0.0000E+00  0.0000E+00  0.0000E+00  0.0000E+00  0.0000E+00  0.0000E+00  0.0000E+00  0.0000E+00  0.0000E+00  0.0000E+00  0.0000E+00  0.0000E+00  0.0000E+00
RES          2    5  0.1037E+11  0.4904E+03  0.7561E+03  0.1967E+08  0.8639E+07  0.0000E+00  0.1222E+07  0.7364E+04  0.3664E+01  0.3849E+08  0.1172E+04  0.9007E-03  0.8993E+07  0.0000E+00  0.0000E+00  0.1314E+07  0.1082E+03  0.8600E-04  0.6979E+06  0.5264E+02  0.4084E-04  0.7116E+07  0.3288E+03  0.2537E-03  0.3740E+07  0.0000E+00  0.0000E+00  0.0000E+00  0.0000E+00  0.0000E+00  0.0000E+00  0.0000E+00  0.0000E+00  0.0000E+00  0.0000E+00  0.0000E+00  0.0000E+00  0.0000E+00  0.0000E+00  0.0000E+00  0.0000E+00
RES          3    5  0.1071E+11  0.7548E+03  0.9013E+03  0.1139E+08  0.9174E+07  0.0000E+00  0.6490E+05  0.8686E+04  0.3603E+01  0.1077E+05  0.1305E+04  0.5273E-03  0.3463E+04  0.1838E+03  0.7654E-04  0.3024E+04  0.2928E+03  0.1198E-03  0.5007E+02  0.1318E+02  0.5254E-05  0.1063E+04  0.1657E+03  0.6686E-04  0.1298E+02  0.4055E+01  0.1585E-05  0.0000E+00  0.1905E+03  0.1720E+02  0.0000E+00  0.0000E+00  0.0000E+00  0.0000E+00  0.0000E+00  0.0000E+00  0.0000E+00  0.0000E+00  0.0000E+00  0.0000E+00  0.0000E+00
RES          4    5  0.1092E+11  0.9224E+03  0.8330E+03  0.1744E+08  0.1167E+08  0.0000E+00  0.5508E+06  0.8093E+04  0.3630E+01  0.2286E+07  0.2302E+05  0.9922E-02  0.5774E+06  0.1005E+03  0.5013E-04  0.8296E+05  0.7381E+03  0.3247E-03  0.7934E+05  0.6250E+03  0.2688E-03  0.5537E+06  0.4886E+04  0.2103E-02  0.3246E+06  0.5202E+02  0.2611E-04  0.1026E+02  0.1184E+03  0.0000E+00  0.0000E+00  0.0000E+00  0.0000E+00  0.0000E+00  0.0000E+00  0.0000E+00  0.0000E+00  0.0000E+00  0.0000E+00  0.0000E+00  0.0000E+00
RES          5    5  0.1101E+11  0.9139E+03  0.6196E+03  0.3477E+08  0.1376E+08  0.0000E+00  0.9117E+06  0.6124E+04  0.3719E+01  0.5689E+07  0.7610E+04  0.5778E-02  0.1177E+07  0.1851E+01  0.2365E-05  0.4646E+06  0.2883E+03  0.2377E-03  0.3614E+06  0.2550E+03  0.1951E-03  0.1901E+07  0.1885E+04  0.1435E-02  0.1078E+07  0.2623E+01  0.3352E-05  0.3010E+00  0.3734E+01  0.0000E+00  0.0000E+00  0.0000E+00  0.0000E+00  0.0000E+00  0.0000E+00  0.0000E+00  0.0000E+00  0.0000E+00  0.0000E+00  0.0000E+00  0.0000E+00
RES          6    5  0.1099E+11  0.8075E+03  0.3933E+03  0.2779E+08  0.1324E+08  0.0000E+00  0.1188E+07  0.3894E+04  0.3812E+01  0.1629E+08  0.0000E+00  0.8195E-04  0.2238E+07  0.0000E+00  0.0000E+00  0.1300E+08  0.0000E+00  0.1892E-04  0.3840E+07  0.0000E+00  0.1273E-04  0.1199E+08  0.0000E+00  0.5011E-04  0.8669E+07  0.0000E+00  0.0000E+00  0.0000E+00  0.0000E+00  0.0000E+00  0.0000E+00  0.0000E+00  0.0000E+00  0.0000E+00  0.0000E+00  0.0000E+00  0.0000E+00  0.0000E+00  0.0000E+00  0.0000E+00  0.0000E+00
RES          7    5  0.1071E+11  0.4942E+03  0.2091E+03  0.5486E+08  0.1250E+08  0.0000E+00  0.1098E+07  0.2128E+04  0.3896E+01  0.3509E+07  0.1467E+04  0.1140E-01  0.6255E+06  0.3363E-01  0.1014E-04  0.2482E+06  0.6150E+02  0.1541E-03  0.2195E+06  0.5550E+02  0.1683E-03  0.1235E+07  0.4651E+03  0.3395E-02  0.6944E+06  0.1286E-01  0.3712E-05  0.0000E+00  0.3723E-01  0.0000E+00  0.0000E+00  0.0000E+00  0.0000E+00  0.0000E+00  0.0000E+00  0.0000E+00  0.0000E+00  0.0000E+00  0.0000E+00  0.0000E+00  0.0000E+00
RES          8    5  0.1119E+11  0.8359E+03  0.3962E+03  0.6942E+08  0.1418E+08  0.0000E+00  0.2608E+07  0.3926E+04  0.3813E+01  0.2194E+08  0.2925E+03  0.1867E-02  0.4180E+07  0.0000E+00  0.0000E+00  0.2847E+07  0.7029E+01  0.4458E-04  0.1576E+07  0.2722E+01  0.1535E-04  0.7964E+07  0.1425E+03  0.9105E-03  0.4443E+07  0.0000E+00  0.0000E+00  0.0000E+00  0.0000E+00  0.0000E+00  0.0000E+00  0.0000E+00  0.0000E+00  0.0000E+00  0.0000E+00  0.0000E+00  0.0000E+00  0.0000E+00  0.0000E+00  0.0000E+00  0.0000E+00
RES          9    5  0.1150E+11  0.1066E+04  0.5071E+03  0.5972E+08  0.1353E+08  0.0000E+00  0.1164E+08  0.4964E+04  0.3759E+01  0.3810E+08  0.1027E+03  0.7585E-03  0.6448E+07  0.0000E+00  0.0000E+00  0.7088E+07  0.1626E+01  0.1186E-04  0.4293E+07  0.3859E+00  0.2601E-05  0.1776E+08  0.5186E+02  0.3792E-03  0.1101E+08  0.0000E+00  0.0000E+00  0.0000E+00  0.0000E+00  0.0000E+00  0.0000E+00  0.0000E+00  0.0000E+00  0.0000E+00  0.0000E+00  0.0000E+00  0.0000E+00  0.0000E+00  0.0000E+00  0.0000E+00  0.0000E+00
RES         10    5  0.1335E+11  0.2551E+04  0.1404E+04  0.3594E+08  0.1526E+08  0.0000E+00  0.1195E+07  0.1383E+05  0.3646E+01  0.9121E+07  0.0000E+00  0.0000E+00  0.1203E+07  0.0000E+00  0.0000E+00  0.1360E+08  0.0000E+00  0.0000E+00  0.2581E+07  0.0000E+00  0.0000E+00  0.6407E+07  0.0000E+00  0.0000E+00  0.7243E+07  0.0000E+00  0.0000E+00  0.0000E+00  0.0000E+00  0.0000E+00  0.0000E+00  0.0000E+00  0.0000E+00  0.0000E+00  0.0000E+00  0.0000E+00  0.0000E+00  0.0000E+00  0.0000E+00  0.0000E+00  0.0000E+00
RES          1    6  0.1012E+11  0.1588E+03  0.1339E+03  0.3771E+08  0.1489E+08  0.0000E+00  0.4505E+06  0.1359E+04  0.3918E+01  0.3597E+07  0.0000E+00  0.0000E+00  0.5432E+06  0.0000E+00  0.0000E+00  0.1818E+07  0.0000E+00  0.0000E+00  0.7142E+06  0.0000E+00  0.0000E+00  0.1837E+07  0.0000E+00  0.0000E+00  0.1427E+07  0.0000E+00  0.0000E+00  0.0000E+00  0.0000E+00  0.0000E+00  0.0000E+00  0.0000E+00  0.0000E+00  0.0000E+00  0.0000E+00  0.0000E+00  0.0000E+00  0.0000E+00  0.0000E+00  0.0000E+00  0.0000E+00
RES          2    6  0.1029E+11  0.2206E+03  0.2645E+03  0.4603E+08  0.9413E+07  0.0000E+00  0.2237E+07  0.2654E+04  0.3875E+01  0.1834E+07  0.5265E+03  0.7580E-03  0.3854E+06  0.0000E+00  0.0000E+00  0.2385E+06  0.1041E+03  0.1530E-03  0.9115E+05  0.3446E+02  0.5116E-04  0.5352E+06  0.1726E+03  0.2525E-03  0.3446E+06  0.0000E+00  0.0000E+00  0.0000E+00  0.0000E+00  0.0000E+00  0.0000E+00  0.0000E+00  0.0000E+00  0.0000E+00  0.0000E+00  0.0000E+00  0.0000E+00  0.0000E+00  0.0000E+00  0.0000E+00  0.0000E+00
RES          3    6  0.1028E+11  0.2646E+03  0.4330E+03  0.1686E+08  0.1010E+08  0.0000E+00  0.1745E+06  0.4251E+04  0.3799E+01  0.3191E+05  0.1036E+04  0.1028E-02  0.1023E+05  0.8565E+02  0.7601E-04  0.1289E+04  0.8347E+02  0.7156E-04  0.3969E+02  0.3099E+01  0.2612E-05  0.2094E+04  0.8956E+02  0.8064E-04  0.6069E+03  0.5960E+01  0.6484E-05  0.0000E+00  0.9104E+02  0.1798E+02  0.0000E+00  0.0000E+00  0.0000E+00  0.0000E+00  0.0000E+00  0.0000E+00  0.0000E+00  0.0000E+00  0.0000E+00  0.0000E+00  0.0000E+00
RES          4    6  0.1058E+11  0.5398E+03  0.6793E+03  0.3163E+08  0.1138E+08  0.0000E+00  0.9253E+06  0.6493E+04  0.3693E+01  0.3171E+07  0.4516E+04  0.2354E-02  0.7480E+06  0.0000E+00  0.0000E+00  0.2516E+06  0.2602E+03  0.1402E-03  0.1959E+06  0.2258E+03  0.1198E-03  0.9901E+06  0.1298E+04  0.6811E-03  0.6316E+06  0.0000E+00  0.0000E+00  0.6206E+00  0.0000E+00  0.0000E+00  0.0000E+00  0.0000E+00  0.0000E+00  0.0000E+00  0.0000E+00  0.0000E+00  0.0000E+00  0.0000E+00  0.0000E+00  0.0000E+00  0.0000E+00
RES          5    6  0.1112E+11  0.1030E+04  0.9949E+03  0.3697E+08  0.1316E+08  0.0000E+00  0.4691E+06  0.9192E+04  0.3565E+01  0.3098E+07  0.0000E+00  0.0000E+00  0.5804E+06  0.0000E+00  0.0000E+00  0.8277E+06  0.0000E+00  0.0000E+00  0.4075E+06  0.0000E+00  0.0000E+00  0.1445E+07  0.0000E+00  0.0000E+00  0.1000E+07  0.0000E+00  0.0000E+00  0.0000E+00  0.0000E+00  0.0000E+00  0.0000E+00  0.0000E+00  0.0000E+00  0.0000E+00  0.0000E+00  0.0000E+00  0.0000E+00  0.0000E+00  0.0000E+00  0.0000E+00  0.0000E+00
RES          6    6  0.1216E+11  0.1786E+04  0.1341E+04  0.2388E+08  0.1451E+08  0.0000E+00  0.7867E+06  0.1185E+05  0.3430E+01  0.5467E+07  0.0000E+00  0.0000E+00  0.6627E+06  0.0000E+00  0.0000E+00  0.7714E+07  0.0000E+00  0.0000E+00  0.1625E+07  0.0000E+00  0.0000E+00  0.4021E+07  0.0000E+00  0.0000E+00  0.4100E+07  0.0000E+00  0.0000E+00  0.0000E+00  0.0000E+00  0.0000E+00  0.0000E+00  0.0000E+00  0.0000E+00  0.0000E+00  0.0000E+00  0.0000E+00  0.0000E+00  0.0000E+00  0.0000E+00  0.0000E+00  0.0000E+00
RES          7    6  0.1206E+11  0.1728E+04  0.1218E+04  0.4463E+08  0.1337E+08  0.0000E+00  0.8881E+06  0.1089E+05  0.3480E+01  0.2610E+07  0.3455E+04  0.8702E-03  0.4381E+06  0.5924E+01  0.1657E-05  0.3873E+06  0.2431E+03  0.6281E-04  0.1865E+06  0.6719E+02  0.1657E-04  0.7621E+06  0.4341E+03  0.1070E-03  0.4954E+06  0.1031E+02  0.2889E-05  0.0000E+00  0.1695E+02  0.0000E+00  0.0000E+00  0.0000E+00  0.0000E+00  0.0000E+00  0.0000E+00  0.0000E+00  0.0000E+00  0.0000E+00  0.0000E+00  0.0000E+00  0.0000E+00
RES          8    6  0.1450E+11  0.3751E+04  0.2506E+04  0.9613E+08  0.1572E+08  0.0000E+00  0.5050E+07  0.2840E+05  0.4196E+01  0.1864E+08  0.0000E+00  0.0000E+00  0.3549E+07  0.0000E+00  0.0000E+00  0.2993E+07  0.0000E+00  0.0000E+00  0.1457E+07  0.0000E+00  0.0000E+00  0.6357E+07  0.0000E+00  0.0000E+00  0.3742E+07  0.0000E+00  0.0000E+00  0.0000E+00  0.0000E+00  0.0000E+00  0.0000E+00  0.0000E+00  0.0000E+00  0.0000E+00  0.0000E+00  0.0000E+00  0.0000E+00  0.0000E+00  0.0000E+00  0.0000E+00  0.0000E+00
RES          9    6  0.1841E+11  0.9111E+04  0.6467E+04  0.7778E+08  0.1619E+08  0.0000E+00  0.5674E+08  0.2801E+06  0.1535E+02  0.5518E+08  0.0000E+00  0.0000E+00  0.1059E+08  0.0000E+00  0.0000E+00  0.4871E+07  0.0000E+00  0.0000E+00  0.3853E+07  0.0000E+00  0.0000E+00  0.1750E+08  0.0000E+00  0.0000E+00  0.9839E+07  0.0000E+00  0.0000E+00  0.0000E+00  0.0000E+00  0.0000E+00  0.0000E+00  0.0000E+00  0.0000E+00  0.0000E+00  0.0000E+00  0.0000E+00  0.0000E+00  0.0000E+00  0.0000E+00  0.0000E+00  0.0000E+00
RES         10    6  0.2138E+11  0.1218E+05  0.9086E+04  0.4188E+08  0.1849E+08  0.0000E+00  0.3752E+07  0.1178E+06  0.4901E+01  0.7583E+07  0.0000E+00  0.0000E+00  0.1053E+07  0.0000E+00  0.0000E+00  0.1154E+08  0.0000E+00  0.0000E+00  0.2047E+07  0.0000E+00  0.0000E+00  0.4610E+07  0.0000E+00  0.0000E+00  0.5720E+07  0.0000E+00  0.0000E+00  0.0000E+00  0.0000E+00  0.0000E+00  0.0000E+00  0.0000E+00  0.0000E+00  0.0000E+00  0.0000E+00  0.0000E+00  0.0000E+00  0.0000E+00  0.0000E+00  0.0000E+00  0.0000E+00
RES          1    7  0.1046E+11  0.4106E+03  0.3005E+03  0.5712E+08  0.1249E+08  0.0000E+00  0.5325E+06  0.3084E+04  0.3841E+01  0.3660E+07  0.0000E+00  0.0000E+00  0.5972E+06  0.0000E+00  0.0000E+00  0.1045E+07  0.0000E+00  0.0000E+00  0.4938E+06  0.0000E+00  0.0000E+00  0.1487E+07  0.0000E+00  0.0000E+00  0.1061E+07  0.0000E+00  0.0000E+00  0.0000E+00  0.0000E+00  0.0000E+00  0.0000E+00  0.0000E+00  0.0000E+00  0.0000E+00  0.0000E+00  0.0000E+00  0.0000E+00  0.0000E+00  0.0000E+00  0.0000E+00  0.0000E+00
RES          2    7  0.1126E+11  0.1128E+04  0.7729E+03  0.3052E+08  0.8742E+07  0.0000E+00  0.2228E+07  0.7486E+04  0.3658E+01  0.1198E+08  0.0000E+00  0.0000E+00  0.2998E+07  0.0000E+00  0.0000E+00  0.7393E+06  0.0000E+00  0.0000E+00  0.8357E+05  0.0000E+00  0.0000E+00  0.1858E+07  0.0000E+00  0.0000E+00  0.6987E+06  0.0000E+00  0.0000E+00  0.0000E+00  0.0000E+00  0.0000E+00  0.0000E+00  0.0000E+00  0.0000E+00  0.0000E+00  0.0000E+00  0.0000E+00  0.0000E+00  0.0000E+00  0.0000E+00  0.0000E+00  0.0000E+00
RES          3    7  0.1104E+11  0.8182E+03  0.5497E+03  0.4406E+08  0.8959E+07  0.0000E+00  0.2722E+07  0.5477E+04  0.3750E+01  0.1987E+06  0.4995E+04  0.3278E-02  0.6603E+05  0.1304E+03  0.9367E-04  0.1033E+05  0.1922E+03  0.1113E-03  0.4136E+01  0.9030E+00  0.8193E-06  0.4285E+04  0.1227E+03  0.8731E-04  0.6351E+04  0.2386E+02  0.1484E-04  0.0000E+00  0.1395E+03  0.1745E+02  0.0000E+00  0.0000E+00  0.0000E+00  0.0000E+00  0.0000E+00  0.0000E+00  0.0000E+00  0.0000E+00  0.0000E+00  0.0000E+00  0.0000E+00
RES          4    7  0.1137E+11  0.1062E+04  0.7815E+03  0.5427E+08  0.9632E+07  0.0000E+00  0.1667E+07  0.7601E+04  0.3652E+01  0.3784E+07  0.3083E+03  0.1338E-03  0.8697E+06  0.0000E+00  0.0000E+00  0.4445E+06  0.3585E+02  0.1540E-04  0.2384E+06  0.1500E+02  0.6566E-05  0.1187E+07  0.8749E+02  0.3812E-04  0.7530E+06  0.0000E+00  0.0000E+00  0.8511E+01  0.0000E+00  0.0000E+00  0.0000E+00  0.0000E+00  0.0000E+00  0.0000E+00  0.0000E+00  0.0000E+00  0.0000E+00  0.0000E+00  0.0000E+00  0.0000E+00  0.0000E+00
RES          5    7  0.1202E+11  0.1610E+04  0.1294E+04  0.5675E+08  0.1168E+08  0.0000E+00  0.6546E+06  0.1193E+05  0.3454E+01  0.3439E+07  0.0000E+00  0.0000E+00  0.6582E+06  0.0000E+00  0.0000E+00  0.8514E+06  0.0000E+00  0.0000E+00  0.4108E+06  0.0000E+00  0.0000E+00  0.1487E+07  0.0000E+00  0.0000E+00  0.1019E+07  0.0000E+00  0.0000E+00  0.0000E+00  0.0000E+00  0.0000E+00  0.0000E+00  0.0000E+00  0.0000E+00  0.0000E+00  0.0000E+00  0.0000E+00  0.0000E+00  0.0000E+00  0.0000E+00  0.0000E+00  0.0000E+00
RES          6    7  0.1554E+11  0.4510E+04  0.3267E+04  0.6183E+08  0.1272E+08  0.0000E+00  0.2237E+07  0.3818E+05  0.4236E+01  0.9523E+07  0.0000E+00  0.0000E+00  0.1347E+07  0.0000E+00  0.0000E+00  0.7156E+07  0.0000E+00  0.0000E+00  0.2108E+07  0.0000E+00  0.0000E+00  0.5703E+07  0.0000E+00  0.0000E+00  0.4637E+07  0.0000E+00  0.0000E+00  0.0000E+00  0.0000E+00  0.0000E+00  0.0000E+00  0.0000E+00  0.0000E+00  0.0000E+00  0.0000E+00  0.0000E+00  0.0000E+00  0.0000E+00  0.0000E+00  0.0000E+00  0.0000E+00
RES          7    7  0.1585E+11  0.4483E+04  0.3098E+04  0.9316E+08  0.1237E+08  0.0000E+00  0.3583E+07  0.3966E+05  0.4422E+01  0.6197E+07  0.2931E+05  0.3240E-02  0.1149E+07  0.0000E+00  0.0000E+00  0.2469E+06  0.1022E+04  0.1235E-03  0.1244E+06  0.5063E+03  0.6141E-04  0.8688E+06  0.4025E+04  0.4801E-03  0.8085E+06  0.0000E+00  0.0000E+00  0.0000E+00  0.0000E+00  0.0000E+00  0.0000E+00  0.0000E+00  0.0000E+00  0.0000E+00  0.0000E+00  0.0000E+00  0.0000E+00  0.0000E+00  0.0000E+00  0.0000E+00  0.0000E+00
RES          8    7  0.1639E+11  0.5801E+04  0.5126E+04  0.9985E+08  0.1503E+08  0.0000E+00  0.1833E+07  0.6038E+05  0.4400E+01  0.6299E+07  0.0000E+00  0.0000E+00  0.1217E+07  0.0000E+00  0.0000E+00  0.1257E+07  0.0000E+00  0.0000E+00  0.4506E+06  0.0000E+00  0.0000E+00  0.2060E+07  0.0000E+00  0.0000E+00  0.1230E+07  0.0000E+00  0.0000E+00  0.0000E+00  0.0000E+00  0.0000E+00  0.0000E+00  0.0000E+00  0.0000E+00  0.0000E+00  0.0000E+00  0.0000E+00  0.0000E+00  0.0000E+00  0.0000E+00  0.0000E+00  0.0000E+00
RES          9    7  0.2163E+11  0.1399E+05  0.1283E+05  0.1342E+09  0.1477E+08  0.0000E+00  0.1817E+08  0.2878E+06  0.8608E+01  0.1544E+08  0.0000E+00  0.0000E+00  0.3017E+07  0.0000E+00  0.0000E+00  0.3648E+07  0.0000E+00  0.0000E+00  0.1157E+07  0.0000E+00  0.0000E+00  0.5012E+07  0.0000E+00  0.0000E+00  0.3163E+07  0.0000E+00  0.0000E+00  0.0000E+00  0.0000E+00  0.0000E+00  0.0000E+00  0.0000E+00  0.0000E+00  0.0000E+00  0.0000E+00  0.0000E+00  0.0000E+00  0.0000E+00  0.0000E+00  0.0000E+00  0.0000E+00
RES         10    7  0.2571E+11  0.2142E+05  0.1982E+05  0.7194E+08  0.1762E+08  0.0000E+00  0.2952E+07  0.2466E+06  0.4668E+01  0.3684E+07  0.0000E+00  0.0000E+00  0.5819E+06  0.0000E+00  0.0000E+00  0.5008E+07  0.0000E+00  0.0000E+00  0.8004E+06  0.0000E+00  0.0000E+00  0.1962E+07  0.0000E+00  0.0000E+00  0.2275E+07  0.0000E+00  0.0000E+00  0.0000E+00  0.0000E+00  0.0000E+00  0.0000E+00  0.0000E+00  0.0000E+00  0.0000E+00  0.0000E+00  0.0000E+00  0.0000E+00  0.0000E+00  0.0000E+00  0.0000E+00  0.0000E+00
RES          1    8  0.1246E+11  0.1762E+04  0.1047E+04  0.9501E+08  0.1150E+08  0.0000E+00  0.3991E+07  0.9719E+04  0.3546E+01  0.1370E+08  0.0000E+00  0.0000E+00  0.2558E+07  0.0000E+00  0.0000E+00  0.1389E+07  0.0000E+00  0.0000E+00  0.8119E+06  0.0000E+00  0.0000E+00  0.3524E+07  0.0000E+00  0.0000E+00  0.2205E+07  0.0000E+00  0.0000E+00  0.0000E+00  0.0000E+00  0.0000E+00  0.0000E+00  0.0000E+00  0.0000E+00  0.0000E+00  0.0000E+00  0.0000E+00  0.0000E+00  0.0000E+00  0.0000E+00  0.0000E+00  0.0000E+00
RES          2    8  0.1128E+11  0.1162E+04  0.1162E+04  0.2821E+08  0.9738E+07  0.0000E+00  0.1799E+07  0.1090E+05  0.3502E+01  0.1645E+07  0.0000E+00  0.0000E+00  0.3998E+06  0.1428E+03  0.4560E-04  0.7717E+06  0.0000E+00  0.0000E+00  0.3306E+05  0.0000E+00  0.0000E+00  0.5166E+06  0.0000E+00  0.0000E+00  0.2769E+06  0.7250E+02  0.2306E-04  0.0000E+00  0.1826E+03  0.1691E+02  0.0000E+00  0.0000E+00  0.0000E+00  0.0000E+00  0.0000E+00  0.0000E+00  0.0000E+00  0.0000E+00  0.0000E+00  0.0000E+00  0.0000E+00
RES          3    8  0.1137E+11  0.1247E+04  0.1130E+04  0.2430E+08  0.1012E+08  0.0000E+00  0.1063E+07  0.1063E+05  0.3515E+01  0.2281E+05  0.7038E+03  0.2519E-03  0.7722E+04  0.2276E+03  0.7611E-04  0.5236E+05  0.8163E+03  0.2689E-03  0.0000E+00  0.3629E-02  0.1367E-08  0.5903E+03  0.1590E+02  0.5595E-05  0.3018E+04  0.8930E+02  0.2988E-04  0.6907E+01  0.2982E+03  0.2328E+02  0.0000E+00  0.0000E+00  0.0000E+00  0.0000E+00  0.0000E+00  0.0000E+00  0.0000E+00  0.0000E+00  0.0000E+00  0.0000E+00  0.0000E+00
RES          4    8  0.1280E+11  0.2394E+04  0.1877E+04  0.5767E+08  0.1110E+08  0.0000E+00  0.1953E+07  0.1843E+05  0.3613E+01  0.2842E+07  0.2949E+04  0.5327E-03  0.6655E+06  0.0000E+00  0.0000E+00  0.4003E+06  0.4117E+03  0.7437E-04  0.1163E+06  0.1039E+03  0.1880E-04  0.7574E+06  0.7397E+03  0.1337E-03  0.4411E+06  0.0000E+00  0.0000E+00  0.3772E+02  0.0000E+00  0.0000E+00  0.0000E+00  0.0000E+00  0.0000E+00  0.0000E+00  0.0000E+00  0.0000E+00  0.0000E+00  0.0000E+00  0.0000E+00  0.0000E+00  0.0000E+00
RES          5    8  0.1489E+11  0.3896E+04  0.2851E+04  0.9058E+08  0.1284E+08  0.0000E+00  0.2503E+07  0.3261E+05  0.4152E+01  0.9134E+07  0.0000E+00  0.0000E+00  0.1940E+07  0.0000E+00  0.0000E+00  0.8509E+06  0.0000E+00  0.0000E+00  0.6366E+06  0.0000E+00  0.0000E+00  0.3050E+07  0.0000E+00  0.0000E+00  0.1810E+07  0.0000E+00  0.0000E+00  0.0000E+00  0.0000E+00  0.0000E+00  0.0000E+00  0.0000E+00  0.0000E+00  0.0000E+00  0.0000E+00  0.0000E+00  0.0000E+00  0.0000E+00  0.0000E+00  0.0000E+00  0.0000E+00
RES          6    8  0.2018E+11  0.1150E+05  0.9791E+04  0.6711E+08  0.1378E+08  0.0000E+00  0.8436E+07  0.1658E+06  0.6130E+01  0.2322E+08  0.0000E+00  0.0000E+00  0.4054E+07  0.0000E+00  0.0000E+00  0.6436E+07  0.0000E+00  0.0000E+00  0.3224E+07  0.0000E+00  0.0000E+00  0.1098E+08  0.0000E+00  0.0000E+00  0.7250E+07  0.0000E+00  0.0000E+00  0.0000E+00  0.0000E+00  0.0000E+00  0.0000E+00  0.0000E+00  0.0000E+00  0.0000E+00  0.0000E+00  0.0000E+00  0.0000E+00  0.0000E+00  0.0000E+00  0.0000E+00  0.0000E+00
RES          7    8  0.2162E+11  0.1431E+05  0.1217E+05  0.7010E+08  0.1350E+08  0.0000E+00  0.5792E+07  0.1724E+06  0.5470E+01  0.5793E+07  0.1752E+04  0.9614E-04  0.1149E+07  0.0000E+00  0.0000E+00  0.7958E+06  0.5122E+02  0.2784E-05  0.1118E+05  0.7669E+01  0.4176E-06  0.1777E+06  0.8699E+02  0.4735E-05  0.8506E+06  0.0000E+00  0.0000E+00  0.0000E+00  0.0000E+00  0.0000E+00  0.0000E+00  0.0000E+00  0.0000E+00  0.0000E+00  0.0000E+00  0.0000E+00  0.0000E+00  0.0000E+00  0.0000E+00  0.0000E+00  0.0000E+00
RES          8    8  0.2323E+11  0.1621E+05  0.1371E+05  0.1460E+09  0.1514E+08  0.0000E+00  0.4024E+07  0.1839E+06  0.4970E+01  0.1047E+08  0.6866E+04  0.1500E-03  0.2591E+07  0.0000E+00  0.0000E+00  0.7009E+06  0.4217E+03  0.9223E-05  0.4280E+06  0.2530E+03  0.5538E-05  0.2805E+07  0.1761E+04  0.3850E-04  0.1743E+07  0.0000E+00  0.0000E+00  0.0000E+00  0.0000E+00  0.0000E+00  0.0000E+00  0.0000E+00  0.0000E+00  0.0000E+00  0.0000E+00  0.0000E+00  0.0000E+00  0.0000E+00  0.0000E+00  0.0000E+00  0.0000E+00
RES          9    8  0.3193E+11  0.2894E+05  0.2517E+05  0.2214E+09  0.1509E+08  0.0000E+00  0.2686E+08  0.6510E+06  0.9263E+01  0.2023E+08  0.0000E+00  0.0000E+00  0.5755E+07  0.0000E+00  0.0000E+00  0.2896E+07  0.0000E+00  0.0000E+00  0.9311E+06  0.0000E+00  0.0000E+00  0.4906E+07  0.0000E+00  0.0000E+00  0.3768E+07  0.0000E+00  0.0000E+00  0.0000E+00  0.0000E+00  0.0000E+00  0.0000E+00  0.0000E+00  0.0000E+00  0.0000E+00  0.0000E+00  0.0000E+00  0.0000E+00  0.0000E+00  0.0000E+00  0.0000E+00  0.0000E+00
RES         10    8  0.3706E+11  0.3664E+05  0.3245E+05  0.1258E+09  0.1756E+08  0.0000E+00  0.2346E+07  0.3837E+06  0.4413E+01  0.4718E+07  0.0000E+00  0.0000E+00  0.8395E+06  0.0000E+00  0.0000E+00  0.3548E+07  0.0000E+00  0.0000E+00  0.9282E+06  0.0000E+00  0.0000E+00  0.2434E+07  0.0000E+00  0.0000E+00  0.2483E+07  0.0000E+00  0.0000E+00  0.0000E+00  0.0000E+00  0.0000E+00  0.0000E+00  0.0000E+00  0.0000E+00  0.0000E+00  0.0000E+00  0.0000E+00  0.0000E+00  0.0000E+00  0.0000E+00  0.0000E+00  0.0000E+00
RES          1    9  0.1458E+11  0.4151E+04  0.3352E+04  0.6418E+08  0.1416E+08  0.0000E+00  0.3824E+07  0.3927E+05  0.4515E+01  0.1742E+08  0.0000E+00  0.0000E+00  0.3558E+07  0.0000E+00  0.0000E+00  0.1783E+07  0.0000E+00  0.0000E+00  0.1195E+07  0.0000E+00  0.0000E+00  0.5531E+07  0.0000E+00  0.0000E+00  0.3394E+07  0.0000E+00  0.0000E+00  0.0000E+00  0.0000E+00  0.0000E+00  0.0000E+00  0.0000E+00  0.0000E+00  0.0000E+00  0.0000E+00  0.0000E+00  0.0000E+00  0.0000E+00  0.0000E+00  0.0000E+00  0.0000E+00
RES          2    9  0.1121E+11  0.1061E+04  0.1097E+04  0.3134E+08  0.8205E+07  0.0000E+00  0.1739E+07  0.1003E+05  0.3527E+01  0.1587E+07  0.4125E+03  0.1439E-03  0.3835E+06  0.5180E+02  0.1774E-04  0.4300E+06  0.1181E+03  0.4108E-04  0.4706E+05  0.8344E+01  0.2916E-05  0.4111E+06  0.9498E+02  0.3318E-04  0.2370E+06  0.2078E+02  0.7126E-05  0.0000E+00  0.6166E+02  0.0000E+00  0.0000E+00  0.0000E+00  0.0000E+00  0.0000E+00  0.0000E+00  0.0000E+00  0.0000E+00  0.0000E+00  0.0000E+00  0.0000E+00  0.0000E+00
RES          3    9  0.1134E+11  0.1174E+04  0.1192E+04  0.2610E+08  0.8478E+07  0.0000E+00  0.1226E+07  0.1078E+05  0.3491E+01  0.1133E+05  0.2771E+03  0.8995E-04  0.3648E+04  0.1607E+03  0.5207E-04  0.3021E+05  0.7416E+03  0.2399E-03  0.8013E+01  0.1821E+00  0.5913E-07  0.4678E+03  0.1084E+02  0.3515E-05  0.1516E+04  0.6689E+02  0.2167E-04  0.1285E+01  0.2312E+03  0.2127E+02  0.0000E+00  0.0000E+00  0.0000E+00  0.0000E+00  0.0000E+00  0.0000E+00  0.0000E+00  0.0000E+00  0.0000E+00  0.0000E+00  0.0000E+00
RES          4    9  0.1289E+11  0.2536E+04  0.2510E+04  0.3197E+08  0.9911E+07  0.0000E+00  0.5852E+06  0.2637E+05  0.4053E+01  0.7170E+06  0.4811E+04  0.7406E-03  0.1663E+06  0.1848E+03  0.2831E-04  0.2187E+06  0.1599E+04  0.2459E-03  0.2789E+05  0.1876E+03  0.2886E-04  0.1884E+06  0.1266E+04  0.1948E-03  0.1217E+06  0.1585E+03  0.2427E-04  0.1150E+02  0.3115E+03  0.1766E+02  0.0000E+00  0.0000E+00  0.0000E+00  0.0000E+00  0.0000E+00  0.0000E+00  0.0000E+00  0.0000E+00  0.0000E+00  0.0000E+00  0.0000E+00
RES          5    9  0.1526E+11  0.5112E+04  0.4980E+04  0.3387E+08  0.1445E+08  0.0000E+00  0.1262E+07  0.5540E+05  0.4293E+01  0.5226E+07  0.5691E+04  0.4300E-03  0.1070E+07  0.0000E+00  0.0000E+00  0.5624E+06  0.7942E+03  0.6015E-04  0.3967E+06  0.4426E+03  0.3348E-04  0.1866E+07  0.2077E+04  0.1570E-03  0.1093E+07  0.0000E+00  0.0000E+00  0.2627E+02  0.0000E+00  0.0000E+00  0.0000E+00  0.0000E+00  0.0000E+00  0.0000E+00  0.0000E+00  0.0000E+00  0.0000E+00  0.0000E+00  0.0000E+00  0.0000E+00  0.0000E+00
RES          6    9  0.1885E+11  0.1236E+05  0.1288E+05  0.2640E+08  0.1825E+08  0.0000E+00  0.2977E+07  0.1599E+06  0.4774E+01  0.7075E+07  0.0000E+00  0.0000E+00  0.1483E+07  0.0000E+00  0.0000E+00  0.1827E+07  0.0000E+00  0.0000E+00  0.8517E+06  0.0000E+00  0.0000E+00  0.3139E+07  0.0000E+00  0.0000E+00  0.2355E+07  0.0000E+00  0.0000E+00  0.0000E+00  0.0000E+00  0.0000E+00  0.0000E+00  0.0000E+00  0.0000E+00  0.0000E+00  0.0000E+00  0.0000E+00  0.0000E+00  0.0000E+00  0.0000E+00  0.0000E+00  0.0000E+00
RES          7    9  0.2059E+11  0.1554E+05  0.1595E+05  0.6638E+08  0.1682E+08  0.0000E+00  0.9910E+06  0.1756E+06  0.4247E+01  0.8734E+06  0.3471E+04  0.8590E-04  0.2903E+06  0.7808E+03  0.1937E-04  0.5648E+06  0.2088E+04  0.5251E-04  0.0000E+00  0.0000E+00  0.0000E+00  0.2717E+04  0.1602E+02  0.4059E-06  0.1754E+06  0.7030E+03  0.1745E-04  0.0000E+00  0.1430E+04  0.1930E+02  0.0000E+00  0.0000E+00  0.0000E+00  0.0000E+00  0.0000E+00  0.0000E+00  0.0000E+00  0.0000E+00  0.0000E+00  0.0000E+00  0.0000E+00
RES          8    9  0.2320E+11  0.2003E+05  0.2007E+05  0.9928E+08  0.1626E+08  0.0000E+00  0.2197E+07  0.2346E+06  0.4508E+01  0.4644E+07  0.1054E+06  0.2033E-02  0.1320E+07  0.0000E+00  0.0000E+00  0.3267E+06  0.7683E+04  0.1481E-03  0.1706E+06  0.3693E+04  0.7120E-04  0.1195E+07  0.2663E+05  0.5138E-03  0.9067E+06  0.0000E+00  0.0000E+00  0.1374E+03  0.0000E+00  0.0000E+00  0.0000E+00  0.0000E+00  0.0000E+00  0.0000E+00  0.0000E+00  0.0000E+00  0.0000E+00  0.0000E+00  0.0000E+00  0.0000E+00  0.0000E+00
RES          9    9  0.3163E+11  0.3753E+05  0.3767E+05  0.1076E+09  0.1866E+08  0.0000E+00  0.4455E+08  0.1147E+07  0.1163E+02  0.1773E+08  0.0000E+00  0.0000E+00  0.6168E+07  0.0000E+00  0.0000E+00  0.1299E+07  0.0000E+00  0.0000E+00  0.4101E+06  0.0000E+00  0.0000E+00  0.3009E+07  0.0000E+00  0.0000E+00  0.2964E+07  0.0000E+00  0.0000E+00  0.0000E+00  0.0000E+00  0.0000E+00  0.0000E+00  0.0000E+00  0.0000E+00  0.0000E+00  0.0000E+00  0.0000E+00  0.0000E+00  0.0000E+00  0.0000E+00  0.0000E+00  0.0000E+00
RES         10    9  0.4191E+11  0.5434E+05  0.5250E+05  0.9252E+08  0.2247E+08  0.0000E+00  0.2459E+07  0.5907E+06  0.4346E+01  0.7665E+07  0.0000E+00  0.0000E+00  0.1437E+07  0.0000E+00  0.0000E+00  0.6359E+07  0.0000E+00  0.0000E+00  0.1832E+07  0.0000E+00  0.0000E+00  0.4552E+07  0.0000E+00  0.0000E+00  0.5461E+07  0.0000E+00  0.0000E+00  0.0000E+00  0.0000E+00  0.0000E+00  0.0000E+00  0.0000E+00  0.0000E+00  0.0000E+00  0.0000E+00  0.0000E+00  0.0000E+00  0.0000E+00  0.0000E+00  0.0000E+00  0.0000E+00
RES          1   10  0.1317E+11  0.2829E+04  0.3369E+04  0.4283E+08  0.1520E+08  0.0000E+00  0.6962E+06  0.3724E+05  0.4121E+01  0.3167E+07  0.9414E+03  0.1280E-03  0.6691E+06  0.0000E+00  0.0000E+00  0.7249E+06  0.2362E+03  0.3181E-04  0.1865E+06  0.2346E+02  0.3158E-05  0.9502E+06  0.1845E+03  0.2498E-04  0.6077E+06  0.0000E+00  0.0000E+00  0.0000E+00  0.0000E+00  0.0000E+00  0.0000E+00  0.0000E+00  0.0000E+00  0.0000E+00  0.0000E+00  0.0000E+00  0.0000E+00  0.0000E+00  0.0000E+00  0.0000E+00  0.0000E+00
RES          2   10  0.1119E+11  0.1056E+04  0.1073E+04  0.2706E+08  0.6449E+07  0.0000E+00  0.1965E+07  0.1016E+05  0.3536E+01  0.3692E+07  0.1212E+05  0.4157E-02  0.9081E+06  0.1196E+03  0.4259E-04  0.2928E+06  0.1347E+04  0.4717E-03  0.6755E+05  0.2635E+03  0.9037E-04  0.6628E+06  0.2433E+04  0.8345E-03  0.3842E+06  0.8881E+02  0.3160E-04  0.0000E+00  0.1445E+03  0.0000E+00  0.0000E+00  0.0000E+00  0.0000E+00  0.0000E+00  0.0000E+00  0.0000E+00  0.0000E+00  0.0000E+00  0.0000E+00  0.0000E+00  0.0000E+00
RES          3   10  0.1131E+11  0.1147E+04  0.1164E+04  0.2090E+08  0.6591E+07  0.0000E+00  0.6177E+06  0.1092E+05  0.3501E+01  0.1728E+05  0.6290E+03  0.2018E-03  0.2314E+04  0.1809E+03  0.5806E-04  0.2253E+05  0.8771E+03  0.2812E-03  0.2610E+03  0.8667E+01  0.2778E-05  0.4461E+04  0.1512E+03  0.4850E-04  0.1111E+04  0.8928E+02  0.2864E-04  0.2123E+02  0.2674E+03  0.2155E+02  0.0000E+00  0.0000E+00  0.0000E+00  0.0000E+00  0.0000E+00  0.0000E+00  0.0000E+00  0.0000E+00  0.0000E+00  0.0000E+00  0.0000E+00
RES          4   10  0.1259E+11  0.2225E+04  0.2347E+04  0.2746E+08  0.7911E+07  0.0000E+00  0.4055E+06  0.2532E+05  0.4028E+01  0.4372E+06  0.1204E+05  0.1917E-02  0.1030E+06  0.8367E+03  0.1335E-03  0.8725E+05  0.2622E+04  0.4164E-03  0.1151E+05  0.3416E+03  0.5461E-04  0.9698E+05  0.2747E+04  0.4383E-03  0.6224E+05  0.5647E+03  0.9016E-04  0.2484E+02  0.1058E+04  0.1127E+02  0.0000E+00  0.0000E+00  0.0000E+00  0.0000E+00  0.0000E+00  0.0000E+00  0.0000E+00  0.0000E+00  0.0000E+00  0.0000E+00  0.0000E+00
RES          5   10  0.1476E+11  0.4299E+04  0.4490E+04  0.2800E+08  0.1154E+08  0.0000E+00  0.4698E+06  0.4929E+05  0.4099E+01  0.1599E+07  0.5403E+05  0.4503E-02  0.3755E+06  0.3901E+03  0.3428E-04  0.1423E+06  0.5061E+04  0.4202E-03  0.8161E+05  0.2743E+04  0.2293E-03  0.4925E+06  0.1672E+05  0.1396E-02  0.2902E+06  0.2801E+03  0.2451E-04  0.9862E+02  0.5273E+03  0.1197E+02  0.0000E+00  0.0000E+00  0.0000E+00  0.0000E+00  0.0000E+00  0.0000E+00  0.0000E+00  0.0000E+00  0.0000E+00  0.0000E+00  0.0000E+00
RES          6   10  0.1684E+11  0.8645E+04  0.9397E+04  0.2265E+08  0.1458E+08  0.0000E+00  0.1028E+07  0.1076E+06  0.4268E+01  0.2843E+07  0.2046E+05  0.8550E-03  0.6367E+06  0.1193E+03  0.5453E-05  0.6546E+06  0.4853E+04  0.2010E-03  0.2687E+06  0.1379E+04  0.5713E-04  0.1198E+07  0.7645E+04  0.3180E-03  0.8466E+06  0.2151E+03  0.9842E-05  0.2314E+01  0.2866E+03  0.0000E+00  0.0000E+00  0.0000E+00  0.0000E+00  0.0000E+00  0.0000E+00  0.0000E+00  0.0000E+00  0.0000E+00  0.0000E+00  0.0000E+00  0.0000E+00
RES          7   10  0.1791E+11  0.1087E+05  0.1187E+05  0.3413E+08  0.1549E+08  0.0000E+00  0.5802E+06  0.1320E+06  0.4150E+01  0.3570E+06  0.1982E+05  0.6390E-03  0.1232E+06  0.2513E+04  0.8084E-04  0.1740E+06  0.9884E+04  0.3101E-03  0.1597E+04  0.9570E+02  0.3224E-05  0.7078E+05  0.3944E+04  0.1288E-03  0.6355E+05  0.1740E+04  0.5523E-04  0.2892E+02  0.3630E+04  0.1287E+02  0.0000E+00  0.0000E+00  0.0000E+00  0.0000E+00  0.0000E+00  0.0000E+00  0.0000E+00  0.0000E+00  0.0000E+00  0.0000E+00  0.0000E+00
RES          8   10  0.2026E+11  0.1523E+05  0.1634E+05  0.6446E+08  0.1487E+08  0.0000E+00  0.1410E+07  0.1899E+06  0.4340E+01  0.3120E+07  0.2081E+06  0.4837E-02  0.8593E+06  0.0000E+00  0.0000E+00  0.1938E+06  0.1311E+05  0.3004E-03  0.8941E+05  0.5942E+04  0.1377E-03  0.7194E+06  0.4781E+05  0.1110E-02  0.5303E+06  0.0000E+00  0.0000E+00  0.4449E+03  0.0000E+00  0.0000E+00  0.0000E+00  0.0000E+00  0.0000E+00  0.0000E+00  0.0000E+00  0.0000E+00  0.0000E+00  0.0000E+00  0.0000E+00  0.0000E+00  0.0000E+00
RES          9   10  0.2473E+11  0.2440E+05  0.2699E+05  0.5111E+08  0.1698E+08  0.0000E+00  0.3420E+07  0.3381E+06  0.4688E+01  0.1284E+07  0.1505E+05  0.2220E-03  0.3527E+06  0.4817E+03  0.8031E-05  0.4905E+06  0.6087E+04  0.8974E-04  0.8528E+05  0.9360E+03  0.1403E-04  0.4148E+06  0.4918E+04  0.7340E-04  0.3719E+06  0.6566E+03  0.1088E-04  0.0000E+00  0.1066E+04  0.1555E+02  0.0000E+00  0.0000E+00  0.0000E+00  0.0000E+00  0.0000E+00  0.0000E+00  0.0000E+00  0.0000E+00  0.0000E+00  0.0000E+00  0.0000E+00
RES         10   10  0.3262E+11  0.3990E+05  0.4339E+05  0.6149E+08  0.2279E+08  0.0000E+00  0.8489E+06  0.4809E+06  0.4136E+01  0.3385E+07  0.0000E+00  0.0000E+00  0.6406E+06  0.0000E+00  0.0000E+00  0.2667E+07  0.0000E+00  0.0000E+00  0.6730E+06  0.0000E+00  0.0000E+00  0.1962E+07  0.0000E+00  0.0000E+00  0.2219E+07  0.0000E+00  0.0000E+00  0.2017E+03  0.0000E+00  0.0000E+00  0.0000E+00  0.0000E+00  0.0000E+00  0.0000E+00  0.0000E+00  0.0000E+00  0.0000E+00  0.0000E+00  0.0000E+00  0.0000E+00  0.0000E+00
RES          1   11  0.1182E+11  0.1574E+04  0.2093E+04  0.1456E+08  0.1337E+08  0.0000E+00  0.6565E+06  0.2191E+05  0.4034E+01  0.1454E+07  0.8096E+04  0.1441E-02  0.3296E+06  0.1760E+02  0.4170E-05  0.2409E+06  0.1225E+04  0.2257E-03  0.6731E+05  0.3221E+03  0.6033E-04  0.3786E+06  0.2016E+04  0.3674E-03  0.2576E+06  0.2575E+02  0.6078E-05  0.0000E+00  0.4316E+02  0.2443E+02  0.0000E+00  0.0000E+00  0.0000E+00  0.0000E+00  0.0000E+00  0.0000E+00  0.0000E+00  0.0000E+00  0.0000E+00  0.0000E+00  0.0000E+00
RES          2   11  0.1097E+11  0.9180E+03  0.1007E+04  0.1916E+08  0.5210E+07  0.0000E+00  0.1500E+07  0.9291E+04  0.3562E+01  0.6066E+07  0.3673E+05  0.1354E-01  0.1743E+07  0.1524E+03  0.5948E-04  0.3393E+06  0.2086E+04  0.7976E-03  0.2060E+06  0.1279E+04  0.4831E-03  0.1564E+07  0.9776E+04  0.3651E-02  0.1098E+07  0.1276E+03  0.5027E-04  0.0000E+00  0.1829E+03  0.0000E+00  0.0000E+00  0.0000E+00  0.0000E+00  0.0000E+00  0.0000E+00  0.0000E+00  0.0000E+00  0.0000E+00  0.0000E+00  0.0000E+00  0.0000E+00
RES          3   11  0.1118E+11  0.1065E+04  0.1114E+04  0.8748E+07  0.5593E+07  0.0000E+00  0.7864E+05  0.1016E+05  0.3520E+01  0.3358E+05  0.1918E+04  0.6646E-03  0.3403E+03  0.1133E+03  0.3906E-04  0.1603E+05  0.9837E+03  0.3399E-03  0.1268E+04  0.6320E+02  0.2198E-04  0.1286E+05  0.6876E+03  0.2387E-03  0.2522E+03  0.6316E+02  0.2180E-04  0.2298E+02  0.1889E+03  0.2749E+02  0.0000E+00  0.0000E+00  0.0000E+00  0.0000E+00  0.0000E+00  0.0000E+00  0.0000E+00  0.0000E+00  0.0000E+00  0.0000E+00  0.0000E+00
RES          4   11  0.1219E+11  0.1936E+04  0.2090E+04  0.1440E+08  0.6302E+07  0.0000E+00  0.2603E+06  0.2174E+05  0.4012E+01  0.2884E+06  0.2020E+05  0.3631E-02  0.6829E+05  0.1264E+04  0.2292E-03  0.2919E+05  0.2233E+04  0.4088E-03  0.5117E+04  0.3585E+03  0.6528E-04  0.5268E+05  0.3657E+04  0.6620E-03  0.3675E+05  0.7910E+03  0.1454E-03  0.2216E+02  0.1411E+04  0.1362E+02  0.0000E+00  0.0000E+00  0.0000E+00  0.0000E+00  0.0000E+00  0.0000E+00  0.0000E+00  0.0000E+00  0.0000E+00  0.0000E+00  0.0000E+00
RES          5   11  0.1442E+11  0.3749E+04  0.3889E+04  0.2772E+08  0.9685E+07  0.0000E+00  0.6296E+06  0.4156E+05  0.4123E+01  0.2082E+07  0.1313E+06  0.1303E-01  0.6683E+06  0.6314E+03  0.6108E-04  0.8616E+05  0.5464E+04  0.5415E-03  0.7517E+05  0.4553E+04  0.4524E-03  0.5705E+06  0.3529E+05  0.3504E-02  0.4223E+06  0.3453E+03  0.3350E-04  0.1523E+03  0.6913E+03  0.0000E+00  0.0000E+00  0.0000E+00  0.0000E+00  0.0000E+00  0.0000E+00  0.0000E+00  0.0000E+00  0.0000E+00  0.0000E+00  0.0000E+00  0.0000E+00
RES          6   11  0.1578E+11  0.6431E+04  0.6845E+04  0.2048E+08  0.1223E+08  0.0000E+00  0.8418E+06  0.7514E+05  0.4224E+01  0.2464E+07  0.6834E+05  0.3700E-02  0.5875E+06  0.6001E+03  0.3630E-04  0.3479E+06  0.1040E+05  0.5808E-03  0.1989E+06  0.4974E+04  0.2748E-03  0.1033E+07  0.2804E+05  0.1535E-02  0.7579E+06  0.1039E+04  0.6294E-04  0.5562E+01  0.1161E+04  0.1261E+02  0.0000E+00  0.0000E+00  0.0000E+00  0.0000E+00  0.0000E+00  0.0000E+00  0.0000E+00  0.0000E+00  0.0000E+00  0.0000E+00  0.0000E+00
RES          7   11  0.1632E+11  0.7539E+04  0.8158E+04  0.2151E+08  0.1303E+08  0.0000E+00  0.4736E+06  0.8730E+05  0.4129E+01  0.3366E+06  0.3730E+05  0.1794E-02  0.1042E+06  0.3134E+04  0.1423E-03  0.5558E+05  0.7448E+04  0.3461E-03  0.8196E+04  0.9521E+03  0.4623E-04  0.9913E+05  0.1153E+05  0.5490E-03  0.4848E+05  0.1708E+04  0.8006E-04  0.1146E+03  0.3662E+04  0.1505E+02  0.0000E+00  0.0000E+00  0.0000E+00  0.0000E+00  0.0000E+00  0.0000E+00  0.0000E+00  0.0000E+00  0.0000E+00  0.0000E+00  0.0000E+00
RES          8   11  0.1760E+11  0.1018E+05  0.1121E+05  0.1871E+08  0.1345E+08  0.0000E+00  0.2930E+06  0.1188E+06  0.4082E+01  0.7598E+06  0.1120E+06  0.3577E-02  0.2044E+06  0.3338E+04  0.1187E-03  0.7932E+05  0.1081E+05  0.3646E-03  0.2189E+05  0.3115E+04  0.1021E-03  0.1779E+06  0.2570E+05  0.8303E-03  0.1306E+06  0.2501E+04  0.8989E-04  0.4770E+03  0.4414E+04  0.1333E+02  0.0000E+00  0.0000E+00  0.0000E+00  0.0000E+00  0.0000E+00  0.0000E+00  0.0000E+00  0.0000E+00  0.0000E+00  0.0000E+00  0.0000E+00
RES          9   11  0.1994E+11  0.1523E+05  0.1708E+05  0.1577E+08  0.1398E+08  0.0000E+00  0.1912E+06  0.1795E+06  0.4051E+01  0.2234E+06  0.1807E+05  0.3852E-03  0.4108E+05  0.2119E+04  0.4633E-04  0.1337E+06  0.1048E+05  0.2332E-03  0.2200E+05  0.1702E+04  0.3729E-04  0.1063E+06  0.8435E+04  0.1827E-03  0.6631E+05  0.3660E+04  0.8270E-04  0.3954E+03  0.5138E+04  0.1884E+02  0.0000E+00  0.0000E+00  0.0000E+00  0.0000E+00  0.0000E+00  0.0000E+00  0.0000E+00  0.0000E+00  0.0000E+00  0.0000E+00  0.0000E+00
RES         10   11  0.2486E+11  0.2553E+05  0.2853E+05  0.2007E+08  0.1890E+08  0.0000E+00  0.2688E+06  0.3004E+06  0.4060E+01  0.1335E+07  0.3616E+04  0.5245E-04  0.2494E+06  0.0000E+00  0.0000E+00  0.9956E+06  0.2723E+04  0.3974E-04  0.2448E+06  0.5817E+03  0.8461E-05  0.8093E+06  0.2208E+04  0.3203E-04  0.8171E+06  0.0000E+00  0.0000E+00  0.8539E+03  0.0000E+00  0.0000E+00  0.0000E+00  0.0000E+00  0.0000E+00  0.0000E+00  0.0000E+00  0.0000E+00  0.0000E+00  0.0000E+00  0.0000E+00  0.0000E+00  0.0000E+00
RES          1   12  0.1093E+11  0.8360E+03  0.1168E+04  0.7532E+07  0.1111E+08  0.0000E+00  0.2511E+06  0.1252E+05  0.4002E+01  0.6268E+06  0.6278E+04  0.2139E-02  0.1389E+06  0.2485E+03  0.7941E-04  0.1060E+06  0.1249E+04  0.4071E-03  0.2793E+05  0.2851E+03  0.9904E-04  0.1620E+06  0.1639E+04  0.5673E-03  0.1160E+06  0.2596E+03  0.8237E-04  0.0000E+00  0.3973E+03  0.1276E+02  0.0000E+00  0.0000E+00  0.0000E+00  0.0000E+00  0.0000E+00  0.0000E+00  0.0000E+00  0.0000E+00  0.0000E+00  0.0000E+00  0.0000E+00
RES          2   12  0.1031E+11  0.3159E+03  0.5641E+03  0.1148E+08  0.3650E+07  0.0000E+00  0.6201E+06  0.5629E+04  0.3743E+01  0.7025E+06  0.7800E+04  0.4479E-02  0.1942E+06  0.2712E+03  0.1971E-03  0.1246E+06  0.1437E+04  0.9215E-03  0.5898E+05  0.6640E+03  0.3931E-03  0.3192E+06  0.3573E+04  0.2088E-02  0.2558E+06  0.4434E+03  0.3218E-03  0.0000E+00  0.4263E+03  0.1057E+02  0.0000E+00  0.0000E+00  0.0000E+00  0.0000E+00  0.0000E+00  0.0000E+00  0.0000E+00  0.0000E+00  0.0000E+00  0.0000E+00  0.0000E+00
RES          3   12  0.1064E+11  0.6265E+03  0.8327E+03  0.1010E+08  0.4012E+07  0.0000E+00  0.5734E+06  0.8079E+04  0.3631E+01  0.2714E+05  0.1464E+04  0.6762E-03  0.5977E+04  0.2084E+03  0.1049E-03  0.1291E+05  0.7891E+03  0.3617E-03  0.6720E+03  0.6305E+02  0.2723E-04  0.6701E+04  0.5451E+03  0.2396E-03  0.2518E+04  0.1003E+03  0.4959E-04  0.0000E+00  0.2570E+03  0.1260E+02  0.0000E+00  0.0000E+00  0.0000E+00  0.0000E+00  0.0000E+00  0.0000E+00  0.0000E+00  0.0000E+00  0.0000E+00  0.0000E+00  0.0000E+00
RES          4   12  0.1140E+11  0.1279E+04  0.1575E+04  0.7970E+07  0.4566E+07  0.0000E+00  0.1455E+05  0.1688E+05  0.4002E+01  0.2683E+05  0.4214E+04  0.9802E-03  0.6352E+04  0.5366E+03  0.1256E-03  0.9211E+04  0.1291E+04  0.3046E-03  0.7416E+03  0.1122E+03  0.2625E-04  0.6645E+04  0.1001E+04  0.2338E-03  0.6840E+04  0.5633E+03  0.1333E-03  0.1367E+02  0.8362E+03  0.1369E+02  0.0000E+00  0.0000E+00  0.0000E+00  0.0000E+00  0.0000E+00  0.0000E+00  0.0000E+00  0.0000E+00  0.0000E+00  0.0000E+00  0.0000E+00
RES          5   12  0.1315E+11  0.2764E+04  0.3239E+04  0.1229E+08  0.7157E+07  0.0000E+00  0.5264E+05  0.3479E+05  0.4011E+01  0.3110E+06  0.4486E+05  0.5026E-02  0.1052E+06  0.2498E+04  0.2883E-03  0.3103E+05  0.4047E+04  0.4617E-03  0.1440E+05  0.2087E+04  0.2340E-03  0.1001E+06  0.1437E+05  0.1612E-02  0.8907E+05  0.2172E+04  0.2511E-03  0.4976E+02  0.2942E+04  0.1032E+02  0.0000E+00  0.0000E+00  0.0000E+00  0.0000E+00  0.0000E+00  0.0000E+00  0.0000E+00  0.0000E+00  0.0000E+00  0.0000E+00  0.0000E+00
RES          6   12  0.1459E+11  0.4350E+04  0.4793E+04  0.7812E+07  0.9753E+07  0.0000E+00  0.1021E+06  0.5166E+05  0.4024E+01  0.1684E+06  0.1468E+05  0.1152E-02  0.4756E+05  0.2210E+04  0.1741E-03  0.8801E+05  0.7972E+04  0.6236E-03  0.2013E+05  0.1778E+04  0.1398E-03  0.9591E+05  0.8362E+04  0.6582E-03  0.7773E+05  0.3686E+04  0.2924E-03  0.4425E+01  0.3869E+04  0.9549E+01  0.0000E+00  0.0000E+00  0.0000E+00  0.0000E+00  0.0000E+00  0.0000E+00  0.0000E+00  0.0000E+00  0.0000E+00  0.0000E+00  0.0000E+00
RES          7   12  0.1497E+11  0.5050E+04  0.5556E+04  0.1524E+08  0.1080E+08  0.0000E+00  0.9763E+05  0.5989E+05  0.4025E+01  0.5859E+05  0.1431E+05  0.9511E-03  0.2003E+05  0.2218E+04  0.1527E-03  0.2346E+05  0.4673E+04  0.3166E-03  0.3224E+04  0.6973E+03  0.4695E-04  0.2119E+05  0.4932E+04  0.3294E-03  0.1327E+05  0.1601E+04  0.1093E-03  0.2687E+03  0.2875E+04  0.1169E+02  0.0000E+00  0.0000E+00  0.0000E+00  0.0000E+00  0.0000E+00  0.0000E+00  0.0000E+00  0.0000E+00  0.0000E+00  0.0000E+00  0.0000E+00
RES          8   12  0.1569E+11  0.6563E+04  0.7276E+04  0.8334E+07  0.1103E+08  0.0000E+00  0.3332E+05  0.7819E+05  0.4012E+01  0.8315E+05  0.2255E+05  0.1098E-02  0.1966E+05  0.2484E+04  0.1228E-03  0.2583E+05  0.6184E+04  0.3139E-03  0.3727E+04  0.9661E+03  0.4804E-04  0.2585E+05  0.6708E+04  0.3315E-03  0.1956E+05  0.2579E+04  0.1314E-03  0.2530E+03  0.3840E+04  0.1442E+02  0.0000E+00  0.0000E+00  0.0000E+00  0.0000E+00  0.0000E+00  0.0000E+00  0.0000E+00  0.0000E+00  0.0000E+00  0.0000E+00  0.0000E+00
RES          9   12  0.1678E+11  0.9089E+04  0.1027E+05  0.5966E+07  0.1106E+08  0.0000E+00  0.2280E+06  0.1118E+06  0.4063E+01  0.5657E+05  0.7589E+04  0.2802E-03  0.1544E+05  0.1694E+04  0.6359E-04  0.4838E+05  0.6822E+04  0.2482E-03  0.4976E+04  0.6965E+03  0.2528E-04  0.2648E+05  0.3620E+04  0.1326E-03  0.1796E+05  0.2272E+04  0.8288E-04  0.2689E+03  0.3444E+04  0.1524E+02  0.0000E+00  0.0000E+00  0.0000E+00  0.0000E+00  0.0000E+00  0.0000E+00  0.0000E+00  0.0000E+00  0.0000E+00  0.0000E+00  0.0000E+00
RES         10   12  0.1954E+11  0.1491E+05  0.1689E+05  0.7308E+07  0.1496E+08  0.0000E+00  0.1058E+06  0.1823E+06  0.4031E+01  0.3813E+06  0.1248E+05  0.2893E-03  0.6916E+05  0.1146E+04  0.2760E-04  0.3661E+06  0.1193E+05  0.2761E-03  0.7403E+05  0.2150E+04  0.4929E-04  0.2583E+06  0.8218E+04  0.1889E-03  0.2607E+06  0.3956E+04  0.9385E-04  0.4782E+03  0.4265E+04  0.1415E+02  0.0000E+00  0.0000E+00  0.0000E+00  0.0000E+00  0.0000E+00  0.0000E+00  0.0000E+00  0.0000E+00  0.0000E+00  0.0000E+00  0.0000E+00
RES          1 1988  0.1093E+11  0.9865E+03  0.9606E+03  0.3818E+09  0.1710E+09  0.0000E+00  0.1084E+08  0.1257E+06  0.3993E+01  0.4903E+08  0.1532E+05  0.4349E-03  0.9261E+07  0.2661E+03  0.9757E-05  0.8819E+07  0.2710E+04  0.7005E-04  0.4312E+07  0.6307E+03  0.1560E-04  0.1668E+08  0.3839E+04  0.1761E-03  0.1081E+08  0.2853E+03  0.9969E-05  0.0000E+00  0.4404E+03  0.1276E+02  0.0000E+00  0.0000E+00  0.0000E+00  0.0000E+00  0.0000E+00  0.0000E+00  0.0000E+00  0.0000E+00  0.0000E+00  0.0000E+00  0.0000E+00
RES          2 1988  0.1031E+11  0.6615E+03  0.6543E+03  0.2634E+09  0.7988E+08  0.0000E+00  0.1903E+08  0.7399E+05  0.3714E+01  0.6731E+09  0.6287E+05  0.6650E-02  0.1532E+09  0.7552E+03  0.6864E-04  0.9112E+07  0.5373E+04  0.3765E-03  0.3037E+07  0.2418E+04  0.1951E-03  0.4300E+08  0.1739E+05  0.1717E-02  0.1943E+08  0.7646E+03  0.5614E-04  0.0000E+00  0.1015E+04  0.1057E+02  0.0000E+00  0.0000E+00  0.0000E+00  0.0000E+00  0.0000E+00  0.0000E+00  0.0000E+00  0.0000E+00  0.0000E+00  0.0000E+00  0.0000E+00
RES          3 1988  0.1064E+11  0.6908E+03  0.6711E+03  0.1986E+09  0.8489E+08  0.0000E+00  0.9743E+07  0.7590E+05  0.3706E+01  0.6323E+07  0.2834E+05  0.7699E-02  0.2045E+07  0.1557E+04  0.1235E-03  0.2400E+06  0.5219E+04  0.2820E-03  0.8186E+05  0.3996E+03  0.1063E-03  0.9582E+06  0.4491E+04  0.1214E-02  0.6441E+06  0.5089E+03  0.4097E-04  0.5241E+02  0.1922E+04  0.1260E+02  0.0000E+00  0.0000E+00  0.0000E+00  0.0000E+00  0.0000E+00  0.0000E+00  0.0000E+00  0.0000E+00  0.0000E+00  0.0000E+00  0.0000E+00
RES          4 1988  0.1140E+11  0.1132E+04  0.1089E+04  0.2640E+09  0.1026E+09  0.0000E+00  0.6469E+07  0.1344E+06  0.3875E+01  0.1428E+08  0.7430E+05  0.2915E-02  0.3382E+07  0.3091E+04  0.1096E-03  0.1600E+07  0.9507E+04  0.2655E-03  0.7035E+06  0.2076E+04  0.8674E-04  0.4026E+07  0.1634E+05  0.6513E-03  0.2498E+07  0.2258E+04  0.8257E-04  0.1304E+03  0.3946E+04  0.1369E+02  0.0000E+00  0.0000E+00  0.0000E+00  0.0000E+00  0.0000E+00  0.0000E+00  0.0000E+00  0.0000E+00  0.0000E+00  0.0000E+00  0.0000E+00
RES          5 1988  0.1315E+11  0.1975E+04  0.1879E+04  0.3482E+09  0.1399E+09  0.0000E+00  0.7011E+07  0.2424E+06  0.3944E+01  0.3115E+08  0.2446E+06  0.2912E-02  0.6694E+07  0.3578E+04  0.6734E-04  0.3925E+07  0.1585E+05  0.2299E-03  0.2416E+07  0.1013E+05  0.1178E-03  0.1110E+08  0.7067E+05  0.8310E-03  0.6909E+07  0.2862E+04  0.5959E-04  0.3273E+03  0.4249E+04  0.1032E+02  0.0000E+00  0.0000E+00  0.0000E+00  0.0000E+00  0.0000E+00  0.0000E+00  0.0000E+00  0.0000E+00  0.0000E+00  0.0000E+00  0.0000E+00
RES          6 1988  0.1459E+11  0.4212E+04  0.4068E+04  0.2789E+09  0.1600E+09  0.0000E+00  0.1760E+08  0.6140E+06  0.4244E+01  0.6706E+08  0.1035E+06  0.4865E-03  0.1106E+08  0.2929E+04  0.1901E-04  0.3722E+08  0.2322E+05  0.1196E-03  0.1214E+08  0.8131E+04  0.4076E-04  0.3816E+08  0.4405E+05  0.2155E-03  0.2870E+08  0.4940E+04  0.3161E-04  0.1230E+02  0.5317E+04  0.9549E+01  0.0000E+00  0.0000E+00  0.0000E+00  0.0000E+00  0.0000E+00  0.0000E+00  0.0000E+00  0.0000E+00  0.0000E+00  0.0000E+00  0.0000E+00
RES          7 1988  0.1497E+11  0.5015E+04  0.4864E+04  0.4439E+09  0.1610E+09  0.0000E+00  0.1358E+08  0.6799E+06  0.4154E+01  0.2000E+08  0.1109E+06  0.2386E-02  0.3956E+07  0.8652E+04  0.5285E-04  0.2498E+07  0.2547E+05  0.1215E-03  0.5547E+06  0.2382E+04  0.2943E-04  0.3306E+07  0.2544E+05  0.6151E-03  0.3161E+07  0.5762E+04  0.2660E-04  0.4122E+03  0.1161E+05  0.1169E+02  0.0000E+00  0.0000E+00  0.0000E+00  0.0000E+00  0.0000E+00  0.0000E+00  0.0000E+00  0.0000E+00  0.0000E+00  0.0000E+00  0.0000E+00
RES          8 1988  0.1569E+11  0.6568E+04  0.6400E+04  0.6444E+09  0.1734E+09  0.0000E+00  0.1769E+08  0.8982E+06  0.4193E+01  0.6930E+08  0.4558E+06  0.2557E-02  0.1462E+08  0.5822E+04  0.4168E-04  0.8526E+07  0.3824E+05  0.1538E-03  0.4211E+07  0.1397E+05  0.3687E-04  0.2228E+08  0.1089E+06  0.6434E-03  0.1305E+08  0.5081E+04  0.1948E-04  0.1312E+04  0.8254E+04  0.1442E+02  0.0000E+00  0.0000E+00  0.0000E+00  0.0000E+00  0.0000E+00  0.0000E+00  0.0000E+00  0.0000E+00  0.0000E+00  0.0000E+00  0.0000E+00
RES          9 1988  0.1678E+11  0.1164E+05  0.1144E+05  0.7107E+09  0.1782E+09  0.0000E+00  0.1624E+09  0.3000E+07  0.6438E+01  0.1551E+09  0.4100E+05  0.4087E-03  0.3348E+08  0.4294E+04  0.1107E-04  0.2069E+08  0.2340E+05  0.5989E-04  0.1081E+08  0.3335E+04  0.9389E-05  0.5095E+08  0.1709E+05  0.1687E-03  0.3240E+08  0.6589E+04  0.1585E-04  0.6643E+03  0.9648E+04  0.1524E+02  0.0000E+00  0.0000E+00  0.0000E+00  0.0000E+00  0.0000E+00  0.0000E+00  0.0000E+00  0.0000E+00  0.0000E+00  0.0000E+00  0.0000E+00
RES         10 1988  0.1954E+11  0.1734E+05  0.1705E+05  0.4818E+09  0.2127E+09  0.0000E+00  0.1398E+08  0.2318E+07  0.4176E+01  0.3922E+08  0.1610E+05  0.3390E-04  0.6239E+07  0.1146E+04  0.2861E-05  0.4707E+08  0.1465E+05  0.3126E-04  0.9594E+07  0.2732E+04  0.5903E-05  0.2410E+08  0.1043E+05  0.2227E-04  0.2784E+08  0.3956E+04  0.9943E-05  0.1534E+04  0.4265E+04  0.1415E+02  0.0000E+00  0.0000E+00  0.0000E+00  0.0000E+00  0.0000E+00  0.0000E+00  0.0000E+00  0.0000E+00  0.0000E+00  0.0000E+00  0.0000E+00
RES          1    1  0.2647E+11  0.6080E+05  0.5241E+05  0.1839E+09  0.7109E+10  0.0000E+00  0.1857E+04  0.1763E+06  0.1381E+01  0.1228E+08  0.8829E+03  0.1037E-04  0.2935E+07  0.3198E+04  0.2964E-04  0.4070E+07  0.3250E+04  0.4244E-04  0.1258E+04  0.0000E+00  0.0000E+00  0.1734E+06  0.2404E+02  0.3005E-06  0.7195E+06  0.2473E+04  0.2424E-04  0.0000E+00  0.5308E+04  0.1605E+02  0.0000E+00  0.0000E+00  0.0000E+00  0.0000E+00  0.0000E+00  0.0000E+00  0.0000E+00  0.0000E+00  0.0000E+00  0.0000E+00  0.0000E+00
RES          2    1  0.1227E+11  0.2851E+04  0.2181E+04  0.2891E+09  0.1280E+09  0.0000E+00  0.2147E+07  0.2363E+05  0.3944E+01  0.4229E+08  0.1276E+07  0.1999E+00  0.1293E+08  0.1584E+04  0.2741E-03  0.1651E+06  0.5511E+04  0.9774E-03  0.8991E+03  0.4674E+02  0.1560E-04  0.1448E+05  0.5395E+03  0.1349E-03  0.7611E+05  0.2364E+03  0.5585E-04  0.0000E+00  0.1117E+04  0.1007E+02  0.0000E+00  0.0000E+00  0.0000E+00  0.0000E+00  0.0000E+00  0.0000E+00  0.0000E+00  0.0000E+00  0.0000E+00  0.0000E+00  0.0000E+00
RES          3    1  0.1374E+11  0.3789E+04  0.2681E+04  0.3191E+09  0.1804E+09  0.0000E+00  0.1105E+07  0.2909E+05  0.3926E+01  0.4904E+08  0.9665E+06  0.1460E+00  0.1336E+08  0.2553E+04  0.3680E-03  0.7872E+06  0.4631E+04  0.7315E-03  0.4653E+02  0.4508E+01  0.1542E-05  0.2196E+04  0.1103E+03  0.3099E-04  0.8305E+05  0.2093E+03  0.3302E-04  0.5567E+03  0.1772E+04  0.1182E+02  0.0000E+00  0.0000E+00  0.0000E+00  0.0000E+00  0.0000E+00  0.0000E+00  0.0000E+00  0.0000E+00  0.0000E+00  0.0000E+00  0.0000E+00
RES          4    1  0.1765E+11  0.9491E+04  0.7161E+04  0.2915E+09  0.2911E+09  0.0000E+00  0.2537E+05  0.6103E+05  0.3215E+01  0.7185E+07  0.1285E+06  0.6857E-02  0.1828E+07  0.3821E+04  0.2087E-03  0.7356E+06  0.1682E+05  0.8755E-03  0.1653E+04  0.7117E+02  0.4890E-05  0.4488E+05  0.1713E+04  0.9701E-04  0.1885E+06  0.1546E+04  0.8370E-04  0.5634E+03  0.3502E+04  0.0000E+00  0.0000E+00  0.0000E+00  0.0000E+00  0.0000E+00  0.0000E+00  0.0000E+00  0.0000E+00  0.0000E+00  0.0000E+00  0.0000E+00  0.0000E+00
RES          5    1  0.7390E+11  0.1226E+06  0.9979E+05  0.6822E+09  0.1099E+10  0.0000E+00  0.8175E+05  0.3643E+06  0.1408E+01  0.1999E+08  0.9666E+06  0.3902E-02  0.5930E+07  0.3133E+05  0.1056E-03  0.2126E+07  0.1367E+06  0.5498E-03  0.2542E+03  0.1021E+03  0.1629E-05  0.3552E+05  0.3158E+04  0.2766E-04  0.5491E+06  0.6065E+04  0.2038E-04  0.2149E+04  0.2864E+05  0.0000E+00  0.0000E+00  0.0000E+00  0.0000E+00  0.0000E+00  0.0000E+00  0.0000E+00  0.0000E+00  0.0000E+00  0.0000E+00  0.0000E+00  0.0000E+00
RES          6    1  0.9026E+11  0.1458E+06  0.1172E+06  0.1420E+10  0.2516E+10  0.0000E+00  0.5138E+06  0.1202E+07  0.3710E+01  0.2142E+09  0.2815E+06  0.9301E-03  0.5209E+08  0.1145E+05  0.3056E-04  0.1312E+08  0.6766E+05  0.2138E-03  0.2539E+05  0.2562E+03  0.1275E-05  0.3375E+08  0.7136E+05  0.2226E-03  0.1908E+08  0.5975E+04  0.1595E-04  0.7637E+04  0.1427E+05  0.0000E+00  0.0000E+00  0.0000E+00  0.0000E+00  0.0000E+00  0.0000E+00  0.0000E+00  0.0000E+00  0.0000E+00  0.0000E+00  0.0000E+00  0.0000E+00
RES          7    1  0.1009E+12  0.1448E+06  0.1123E+06  0.1982E+10  0.3107E+10  0.0000E+00  0.1247E+07  0.1200E+07  0.3850E+01  0.1239E+09  0.2202E+06  0.9914E-03  0.3219E+08  0.2362E+05  0.9610E-04  0.8047E+07  0.8394E+05  0.3132E-03  0.5382E+03  0.3025E+02  0.5550E-06  0.3590E+07  0.1146E+05  0.4290E-04  0.9344E+06  0.2489E+04  0.9490E-05  0.1030E+05  0.2299E+05  0.0000E+00  0.0000E+00  0.0000E+00  0.0000E+00  0.0000E+00  0.0000E+00  0.0000E+00  0.0000E+00  0.0000E+00  0.0000E+00  0.0000E+00  0.0000E+00
RES          8    1  0.9210E+11  0.1338E+06  0.1043E+06  0.1054E+10  0.3783E+10  0.0000E+00  0.7586E+06  0.1037E+07  0.3474E+01  0.3181E+08  0.4206E+06  0.1548E-02  0.7253E+07  0.2660E+05  0.1186E-03  0.3571E+07  0.8760E+05  0.3705E-03  0.8408E+03  0.8301E+02  0.9183E-06  0.3190E+06  0.2768E+05  0.8700E-04  0.8448E+06  0.9085E+04  0.4167E-04  0.9064E+04  0.2741E+05  0.1213E+02  0.0000E+00  0.0000E+00  0.0000E+00  0.0000E+00  0.0000E+00  0.0000E+00  0.0000E+00  0.0000E+00  0.0000E+00  0.0000E+00  0.0000E+00
RES          9    1  0.9688E+11  0.1527E+06  0.1211E+06  0.9381E+09  0.5443E+10  0.0000E+00  0.6755E+06  0.1049E+07  0.3029E+01  0.2571E+08  0.1298E+05  0.3382E-04  0.5899E+07  0.1067E+05  0.3235E-04  0.5026E+07  0.2384E+05  0.6461E-04  0.9250E+04  0.1609E+03  0.4065E-06  0.5099E+06  0.3215E+04  0.8273E-05  0.6371E+06  0.7629E+04  0.2231E-04  0.8910E+04  0.1802E+05  0.1934E+02  0.0000E+00  0.0000E+00  0.0000E+00  0.0000E+00  0.0000E+00  0.0000E+00  0.0000E+00  0.0000E+00  0.0000E+00  0.0000E+00  0.0000E+00
RES         10    1  0.1532E+12  0.3429E+06  0.2889E+06  0.4056E+08  0.1107E+11  0.0000E+00  0.7453E+06  0.1651E+07  0.2148E+01  0.5767E+08  0.4073E+04  0.6001E-05  0.1309E+08  0.4204E+04  0.5538E-05  0.1108E+08  0.6503E+04  0.9603E-05  0.3164E+06  0.1794E+03  0.2638E-06  0.3680E+07  0.1215E+04  0.1788E-05  0.4248E+07  0.5770E+04  0.7294E-05  0.6623E+04  0.1086E+05  0.1767E+02  0.0000E+00  0.0000E+00  0.0000E+00  0.0000E+00  0.0000E+00  0.0000E+00  0.0000E+00  0.0000E+00  0.0000E+00  0.0000E+00  0.0000E+00
RES          1    2  0.8583E+12  0.9349E+06  0.5718E+06  0.0000E+00  0.1524E+11  0.0000E+00  0.2321E+01  0.1345E+07  0.1242E+01  0.3375E+05  0.4551E+04  0.1016E-04  0.7052E+04  0.4282E+04  0.1497E-04  0.6899E+06  0.1021E+06  0.1251E-03  0.0000E+00  0.0000E+00  0.0000E+00  0.1439E+04  0.1641E+03  0.5227E-06  0.1354E+05  0.7735E+04  0.1979E-04  0.0000E+00  0.1866E+05  0.7160E+02  0.0000E+00  0.0000E+00  0.0000E+00  0.0000E+00  0.0000E+00  0.0000E+00  0.0000E+00  0.0000E+00  0.0000E+00  0.0000E+00  0.0000E+00
RES          2    2  0.1255E+11  0.1905E+04  0.1916E+04  0.4287E+09  0.1162E+09  0.0000E+00  0.1219E+07  0.1812E+05  0.4184E+01  0.2131E+08  0.3652E+05  0.8299E-02  0.6674E+07  0.1935E+04  0.4534E-03  0.9257E+06  0.2345E+04  0.5847E-03  0.1410E+03  0.2629E+01  0.7199E-06  0.3292E+04  0.5418E+02  0.1483E-04  0.5659E+05  0.2146E+03  0.5339E-04  0.0000E+00  0.1297E+04  0.9585E+01  0.0000E+00  0.0000E+00  0.0000E+00  0.0000E+00  0.0000E+00  0.0000E+00  0.0000E+00  0.0000E+00  0.0000E+00  0.0000E+00  0.0000E+00
RES          3    2  0.1607E+11  0.4035E+04  0.3264E+04  0.7059E+09  0.1755E+09  0.0000E+00  0.1276E+07  0.3347E+05  0.4419E+01  0.3957E+08  0.3363E+05  0.4500E-02  0.1180E+08  0.2326E+04  0.3360E-03  0.7601E+07  0.4513E+04  0.6397E-03  0.1498E+01  0.2556E-01  0.4107E-08  0.5766E+06  0.5065E+03  0.5700E-04  0.1263E+06  0.1641E+03  0.2435E-04  0.6010E+03  0.1586E+04  0.0000E+00  0.0000E+00  0.0000E+00  0.0000E+00  0.0000E+00  0.0000E+00  0.0000E+00  0.0000E+00  0.0000E+00  0.0000E+00  0.0000E+00  0.0000E+00
RES          4    2  0.1711E+11  0.6820E+04  0.6961E+04  0.1168E+09  0.3205E+09  0.0000E+00  0.3721E+05  0.6360E+05  0.4081E+01  0.1297E+08  0.3388E+05  0.1841E-02  0.4328E+07  0.3159E+04  0.1893E-03  0.7080E+07  0.1046E+05  0.6750E-03  0.7907E+03  0.9151E+02  0.5686E-05  0.1539E+05  0.1538E+04  0.9410E-04  0.6282E+06  0.1322E+04  0.8630E-04  0.4349E+03  0.3218E+04  0.0000E+00  0.0000E+00  0.0000E+00  0.0000E+00  0.0000E+00  0.0000E+00  0.0000E+00  0.0000E+00  0.0000E+00  0.0000E+00  0.0000E+00  0.0000E+00
RES          5    2  0.5121E+11  0.8146E+05  0.9081E+05  0.3003E+09  0.1165E+10  0.0000E+00  0.5722E+05  0.5449E+06  0.2745E+01  0.6163E+07  0.2520E+06  0.1246E-02  0.1691E+07  0.3044E+05  0.1436E-03  0.1643E+07  0.1020E+06  0.4942E-03  0.0000E+00  0.0000E+00  0.0000E+00  0.1681E+05  0.2957E+04  0.1372E-04  0.1498E+06  0.8793E+04  0.4203E-04  0.1790E+04  0.3143E+05  0.1217E+02  0.0000E+00  0.0000E+00  0.0000E+00  0.0000E+00  0.0000E+00  0.0000E+00  0.0000E+00  0.0000E+00  0.0000E+00  0.0000E+00  0.0000E+00
RES          6    2  0.6088E+11  0.1043E+06  0.1160E+06  0.4398E+09  0.2724E+10  0.0000E+00  0.5249E+06  0.1097E+07  0.4207E+01  0.1729E+08  0.1428E+06  0.5536E-03  0.4089E+07  0.2139E+05  0.7777E-04  0.5646E+07  0.1192E+06  0.4550E-03  0.1405E+04  0.4285E+02  0.1520E-06  0.2330E+07  0.2116E+05  0.8257E-04  0.1035E+07  0.1068E+05  0.3964E-04  0.1013E+05  0.2787E+05  0.2007E+02  0.0000E+00  0.0000E+00  0.0000E+00  0.0000E+00  0.0000E+00  0.0000E+00  0.0000E+00  0.0000E+00  0.0000E+00  0.0000E+00  0.0000E+00
RES          7    2  0.7162E+11  0.1228E+06  0.1342E+06  0.8620E+09  0.3622E+10  0.0000E+00  0.1119E+07  0.1282E+07  0.4247E+01  0.5261E+08  0.7253E+06  0.2587E-02  0.1446E+08  0.1767E+05  0.5525E-04  0.3204E+07  0.1173E+06  0.3846E-03  0.2055E+02  0.0000E+00  0.0000E+00  0.5791E+06  0.1412E+05  0.4395E-04  0.2597E+06  0.6512E+04  0.2146E-04  0.1916E+05  0.2337E+05  0.0000E+00  0.0000E+00  0.0000E+00  0.0000E+00  0.0000E+00  0.0000E+00  0.0000E+00  0.0000E+00  0.0000E+00  0.0000E+00  0.0000E+00  0.0000E+00
RES          8    2  0.7596E+11  0.1255E+06  0.1309E+06  0.5952E+09  0.4069E+10  0.0000E+00  0.7926E+06  0.1242E+07  0.4218E+01  0.6843E+07  0.1919E+06  0.6187E-03  0.1482E+07  0.2537E+05  0.8284E-04  0.2287E+07  0.8616E+05  0.2890E-03  0.2298E+04  0.6156E+03  0.2023E-05  0.1332E+06  0.3458E+05  0.1096E-03  0.8194E+05  0.1373E+05  0.4564E-04  0.7961E+04  0.3414E+05  0.0000E+00  0.0000E+00  0.0000E+00  0.0000E+00  0.0000E+00  0.0000E+00  0.0000E+00  0.0000E+00  0.0000E+00  0.0000E+00  0.0000E+00  0.0000E+00
RES          9    2  0.1699E+13  0.1136E+07  0.4458E+06  0.0000E+00  0.7425E+10  0.0000E+00  0.7077E+06  0.1850E+07  0.3565E+01  0.1668E+08  0.2025E+06  0.6263E-04  0.4395E+07  0.1348E+05  0.2584E-04  0.3539E+07  0.8219E+05  0.1681E-03  0.1143E+05  0.5747E+03  0.1478E-05  0.1281E+07  0.2327E+05  0.1496E-04  0.6389E+06  0.1041E+05  0.2570E-04  0.1004E+05  0.2780E+05  0.3071E+02  0.0000E+00  0.0000E+00  0.0000E+00  0.0000E+00  0.0000E+00  0.0000E+00  0.0000E+00  0.0000E+00  0.0000E+00  0.0000E+00  0.0000E+00
RES         10    2  0.6957E+12  0.5165E+06  0.2793E+06  0.0000E+00  0.1081E+11  0.0000E+00  0.1573E+07  0.2046E+07  0.3876E+01  0.6390E+08  0.4709E+04  0.1056E-04  0.1499E+08  0.7465E+04  0.1658E-04  0.2625E+08  0.5850E+05  0.1368E-03  0.2769E+06  0.2740E+03  0.6094E-06  0.9250E+07  0.1830E+04  0.4068E-05  0.3583E+07  0.1554E+05  0.3544E-04  0.1321E+05  0.2513E+05  0.0000E+00  0.0000E+00  0.0000E+00  0.0000E+00  0.0000E+00  0.0000E+00  0.0000E+00  0.0000E+00  0.0000E+00  0.0000E+00  0.0000E+00  0.0000E+00
RES          1    3  0.2022E+14  0.1908E+08  0.1183E+08  0.3139E+10  0.7082E+11  0.0000E+00  0.2694E+00  0.3167E+08  0.1000E+01  0.6151E+04  0.3439E+03  0.5983E-07  0.0000E+00  0.3720E+03  0.6112E-07  0.9635E+07  0.5136E+06  0.2293E-04  0.0000E+00  0.0000E+00  0.0000E+00  0.0000E+00  0.1090E-02  0.2430E-12  0.2752E+04  0.4094E+04  0.5926E-06  0.0000E+00  0.1121E+05  0.0000E+00  0.0000E+00  0.0000E+00  0.0000E+00  0.0000E+00  0.0000E+00  0.0000E+00  0.0000E+00  0.0000E+00  0.0000E+00  0.0000E+00  0.0000E+00
RES          2    3  0.1482E+11  0.7425E+04  0.6736E+04  0.6258E+09  0.2085E+09  0.0000E+00  0.8955E+07  0.1483E+06  0.6025E+01  0.6151E+09  0.2934E+06  0.2337E-01  0.1723E+09  0.4618E+03  0.5582E-04  0.6716E+07  0.5970E+04  0.4630E-03  0.1034E+05  0.1144E+02  0.8771E-06  0.1301E+08  0.3956E+05  0.2332E-02  0.2773E+07  0.4254E+02  0.5260E-05  0.0000E+00  0.3315E+03  0.0000E+00  0.0000E+00  0.0000E+00  0.0000E+00  0.0000E+00  0.0000E+00  0.0000E+00  0.0000E+00  0.0000E+00  0.0000E+00  0.0000E+00  0.0000E+00
RES          3    3  0.1678E+11  0.8669E+04  0.8455E+04  0.4490E+09  0.3112E+09  0.0000E+00  0.1718E+07  0.1046E+06  0.4459E+01  0.4664E+08  0.1808E+06  0.7630E-02  0.1423E+08  0.4407E+04  0.1981E-03  0.9786E+06  0.1075E+05  0.4813E-03  0.1062E+02  0.4221E+00  0.1910E-07  0.7819E+06  0.8102E+04  0.3238E-03  0.1278E+06  0.4236E+03  0.1937E-04  0.2041E+03  0.3556E+04  0.1131E+02  0.0000E+00  0.0000E+00  0.0000E+00  0.0000E+00  0.0000E+00  0.0000E+00  0.0000E+00  0.0000E+00  0.0000E+00  0.0000E+00  0.0000E+00
RES          4    3  0.1767E+11  0.9113E+04  0.8760E+04  0.1684E+09  0.5600E+09  0.0000E+00  0.8198E+05  0.9435E+05  0.4020E+01  0.7697E+07  0.6623E+04  0.3061E-03  0.2321E+07  0.2110E+04  0.9976E-04  0.3517E+07  0.5883E+04  0.2737E-03  0.5743E+03  0.1098E+02  0.5075E-06  0.1352E+06  0.9644E+03  0.4568E-04  0.4583E+06  0.8418E+03  0.3970E-04  0.1133E+04  0.2212E+04  0.1236E+02  0.0000E+00  0.0000E+00  0.0000E+00  0.0000E+00  0.0000E+00  0.0000E+00  0.0000E+00  0.0000E+00  0.0000E+00  0.0000E+00  0.0000E+00
[...]
RES          2   10  0.2371E+11  0.2509E+05  0.2458E+05  0.1270E+10  0.2915E+09  0.0000E+00  0.3042E+08  0.7440E+06  0.9411E+01  0.9517E+08  0.4438E+06  0.5484E-02  0.2869E+08  0.2721E+04  0.6901E-04  0.8924E+06  0.1701E+05  0.3258E-03  0.1985E+03  0.6061E+01  0.1530E-06  0.7169E+06  0.1394E+05  0.1949E-03  0.8165E+06  0.7735E+03  0.1950E-04  0.0000E+00  0.2720E+04  0.0000E+00  0.0000E+00  0.0000E+00  0.0000E+00  0.0000E+00  0.0000E+00  0.0000E+00  0.0000E+00  0.0000E+00  0.0000E+00  0.0000E+00  0.0000E+00
RES          3   10  0.3305E+11  0.3130E+05  0.2866E+05  0.2534E+10  0.3778E+09  0.0000E+00  0.3092E+07  0.3505E+06  0.4557E+01  0.1557E+07  0.3030E+06  0.3807E-02  0.4337E+06  0.8481E+04  0.1148E-03  0.6905E+05  0.1594E+05  0.2164E-03  0.0000E+00  0.0000E+00  0.0000E+00  0.3005E+05  0.6964E+04  0.7894E-04  0.4606E+05  0.1550E+04  0.2220E-04  0.2316E+04  0.8547E+04  0.0000E+00  0.0000E+00  0.0000E+00  0.0000E+00  0.0000E+00  0.0000E+00  0.0000E+00  0.0000E+00  0.0000E+00  0.0000E+00  0.0000E+00  0.0000E+00
RES          4   10  0.6086E+11  0.8014E+05  0.7686E+05  0.2999E+10  0.6860E+09  0.0000E+00  0.1558E+07  0.8566E+06  0.4144E+01  0.5468E+08  0.4740E+07  0.2110E-01  0.3503E+08  0.0000E+00  0.0000E+00  0.4145E+06  0.4603E+05  0.2339E-03  0.0000E+00  0.0000E+00  0.0000E+00  0.2340E+05  0.3537E+04  0.1605E-04  0.3527E+07  0.0000E+00  0.0000E+00  0.5809E+04  0.0000E+00  0.0000E+00  0.0000E+00  0.0000E+00  0.0000E+00  0.0000E+00  0.0000E+00  0.0000E+00  0.0000E+00  0.0000E+00  0.0000E+00  0.0000E+00  0.0000E+00
RES          5   10  0.7215E+12  0.1497E+07  0.1749E+07  0.1550E+11  0.3982E+10  0.0000E+00  0.2837E+07  0.1890E+08  0.4034E+01  0.1312E+09  0.6624E+07  0.1339E-02  0.1281E+09  0.0000E+00  0.0000E+00  0.6344E+07  0.2998E+06  0.6171E-04  0.0000E+00  0.0000E+00  0.0000E+00  0.4507E+07  0.2607E+06  0.4966E-04  0.2156E+08  0.0000E+00  0.0000E+00  0.0000E+00  0.0000E+00  0.0000E+00  0.0000E+00  0.0000E+00  0.0000E+00  0.0000E+00  0.0000E+00  0.0000E+00  0.0000E+00  0.0000E+00  0.0000E+00  0.0000E+00  0.0000E+00
RES          6   10  0.3202E+13  0.6863E+07  0.8088E+07  0.4040E+11  0.1570E+11  0.0000E+00  0.2333E+08  0.8771E+08  0.4049E+01  0.4629E+09  0.3708E+04  0.1333E-06  0.3365E+09  0.0000E+00  0.0000E+00  0.4750E+08  0.1818E+04  0.6534E-07  0.4903E+04  0.0000E+00  0.0000E+00  0.2530E+08  0.3033E+03  0.1090E-07  0.5385E+08  0.0000E+00  0.0000E+00  0.0000E+00  0.0000E+00  0.0000E+00  0.0000E+00  0.0000E+00  0.0000E+00  0.0000E+00  0.0000E+00  0.0000E+00  0.0000E+00  0.0000E+00  0.0000E+00  0.0000E+00  0.0000E+00
RES          7   10  0.6253E+13  0.1350E+08  0.1601E+08  0.1048E+12  0.2569E+11  0.0000E+00  0.8893E+08  0.1748E+09  0.4078E+01  0.1331E+09  0.7466E+06  0.1613E-04  0.2134E+09  0.1177E+06  0.2608E-05  0.3486E+08  0.3071E+06  0.6355E-05  0.0000E+00  0.0000E+00  0.0000E+00  0.2165E+07  0.1006E+05  0.2200E-06  0.1616E+08  0.3143E+05  0.7570E-06  0.0000E+00  0.2394E+06  0.0000E+00  0.0000E+00  0.0000E+00  0.0000E+00  0.0000E+00  0.0000E+00  0.0000E+00  0.0000E+00  0.0000E+00  0.0000E+00  0.0000E+00  0.0000E+00
RES          8   10  0.7879E+13  0.1698E+08  0.2014E+08  0.1769E+12  0.2915E+11  0.0000E+00  0.1791E+09  0.2219E+09  0.4115E+01  0.6417E+09  0.1093E+08  0.2082E-03  0.2782E+09  0.0000E+00  0.0000E+00  0.2851E+08  0.6943E+06  0.1257E-04  0.0000E+00  0.0000E+00  0.0000E+00  0.2455E+07  0.8111E+05  0.1582E-05  0.3239E+08  0.0000E+00  0.0000E+00  0.1989E+06  0.0000E+00  0.0000E+00  0.0000E+00  0.0000E+00  0.0000E+00  0.0000E+00  0.0000E+00  0.0000E+00  0.0000E+00  0.0000E+00  0.0000E+00  0.0000E+00  0.0000E+00
RES          9   10  0.1300E+14  0.2813E+08  0.3310E+08  0.2404E+12  0.4849E+11  0.0000E+00  0.2528E+09  0.3636E+09  0.4099E+01  0.2109E+10  0.0000E+00  0.0000E+00  0.1092E+10  0.0000E+00  0.0000E+00  0.1074E+09  0.0000E+00  0.0000E+00  0.0000E+00  0.0000E+00  0.0000E+00  0.2292E+08  0.0000E+00  0.0000E+00  0.1000E+09  0.0000E+00  0.0000E+00  0.0000E+00  0.0000E+00  0.0000E+00  0.0000E+00  0.0000E+00  0.0000E+00  0.0000E+00  0.0000E+00  0.0000E+00  0.0000E+00  0.0000E+00  0.0000E+00  0.0000E+00  0.0000E+00
RES         10   10  0.1815E+14  0.3851E+08  0.4523E+08  0.4093E+12  0.8290E+11  0.0000E+00  0.3659E+09  0.4973E+09  0.4105E+01  0.2550E+10  0.0000E+00  0.0000E+00  0.9163E+09  0.0000E+00  0.0000E+00  0.1234E+09  0.0000E+00  0.0000E+00  0.3901E+05  0.0000E+00  0.0000E+00  0.1738E+09  0.0000E+00  0.0000E+00  0.2877E+09  0.0000E+00  0.0000E+00  0.0000E+00  0.0000E+00  0.0000E+00  0.0000E+00  0.0000E+00  0.0000E+00  0.0000E+00  0.0000E+00  0.0000E+00  0.0000E+00  0.0000E+00  0.0000E+00  0.0000E+00  0.0000E+00
RES          1   11  0.2703E+13  0.5474E+07  0.6294E+07  0.4790E+11  0.3904E+11  0.0000E+00  0.4250E+06  0.6551E+08  0.4016E+01  0.5466E+09  0.0000E+00  0.0000E+00  0.2357E+09  0.0000E+00  0.0000E+00  0.7649E+08  0.0000E+00  0.0000E+00  0.0000E+00  0.0000E+00  0.0000E+00  0.1595E+08  0.0000E+00  0.0000E+00  0.2128E+08  0.0000E+00  0.0000E+00  0.0000E+00  0.0000E+00  0.0000E+00  0.0000E+00  0.0000E+00  0.0000E+00  0.0000E+00  0.0000E+00  0.0000E+00  0.0000E+00  0.0000E+00  0.0000E+00  0.0000E+00  0.0000E+00
RES          2   11  0.1503E+11  0.6666E+04  0.9973E+04  0.9390E+08  0.2049E+09  0.0000E+00  0.6266E+07  0.1533E+06  0.5635E+01  0.3902E+07  0.1336E+06  0.4496E-02  0.1077E+07  0.4389E+04  0.1898E-03  0.1676E+06  0.1028E+05  0.3996E-03  0.2968E+04  0.3957E+03  0.2433E-04  0.2253E+06  0.2275E+05  0.8787E-03  0.1664E+06  0.2526E+04  0.1161E-03  0.0000E+00  0.4857E+04  0.1320E+02  0.0000E+00  0.0000E+00  0.0000E+00  0.0000E+00  0.0000E+00  0.0000E+00  0.0000E+00  0.0000E+00  0.0000E+00  0.0000E+00  0.0000E+00
RES          3   11  0.1733E+11  0.1209E+05  0.1808E+05  0.1152E+09  0.2944E+09  0.0000E+00  0.1598E+06  0.1925E+06  0.4078E+01  0.2149E+06  0.2251E+06  0.3580E-02  0.3186E+05  0.6967E+04  0.1339E-03  0.3112E+05  0.1179E+05  0.2544E-03  0.3879E+03  0.8174E+02  0.2890E-05  0.2806E+05  0.1018E+05  0.2198E-03  0.7932E+04  0.1759E+04  0.3833E-04  0.3922E+04  0.7147E+04  0.1805E+02  0.0000E+00  0.0000E+00  0.0000E+00  0.0000E+00  0.0000E+00  0.0000E+00  0.0000E+00  0.0000E+00  0.0000E+00  0.0000E+00  0.0000E+00
RES          4   11  0.3198E+11  0.4219E+05  0.5326E+05  0.3201E+09  0.5046E+09  0.0000E+00  0.2824E+06  0.5605E+06  0.4054E+01  0.5124E+07  0.1759E+07  0.1091E-01  0.3072E+07  0.9025E+04  0.7913E-04  0.1903E+06  0.3906E+05  0.2969E-03  0.7125E+02  0.1129E+02  0.1133E-06  0.4156E+05  0.1174E+05  0.8633E-04  0.4717E+06  0.6288E+04  0.5614E-04  0.4622E+04  0.1114E+05  0.1127E+02  0.0000E+00  0.0000E+00  0.0000E+00  0.0000E+00  0.0000E+00  0.0000E+00  0.0000E+00  0.0000E+00  0.0000E+00  0.0000E+00  0.0000E+00
RES          5   11  0.3827E+12  0.7786E+06  0.9100E+06  0.4279E+10  0.2556E+10  0.0000E+00  0.1142E+07  0.9506E+07  0.4030E+01  0.3672E+08  0.3418E+07  0.1435E-02  0.3466E+08  0.1086E+05  0.3960E-05  0.4713E+07  0.3786E+06  0.1661E-03  0.0000E+00  0.0000E+00  0.0000E+00  0.1234E+06  0.1244E+05  0.5227E-05  0.6516E+07  0.1618E+04  0.5906E-06  0.7308E+04  0.1386E+05  0.0000E+00  0.0000E+00  0.0000E+00  0.0000E+00  0.0000E+00  0.0000E+00  0.0000E+00  0.0000E+00  0.0000E+00  0.0000E+00  0.0000E+00  0.0000E+00
RES          6   11  0.1703E+13  0.3525E+07  0.4100E+07  0.1143E+10  0.1051E+11  0.0000E+00  0.1013E+08  0.4297E+08  0.4044E+01  0.6039E+08  0.5159E+06  0.5192E-04  0.5018E+08  0.1828E+06  0.1744E-04  0.2789E+08  0.4080E+06  0.4152E-04  0.9617E+03  0.0000E+00  0.0000E+00  0.4648E+07  0.3886E+05  0.4052E-05  0.1075E+08  0.4712E+05  0.4519E-05  0.8763E+04  0.2660E+06  0.0000E+00  0.0000E+00  0.0000E+00  0.0000E+00  0.0000E+00  0.0000E+00  0.0000E+00  0.0000E+00  0.0000E+00  0.0000E+00  0.0000E+00  0.0000E+00
RES          7   11  0.3264E+13  0.6840E+07  0.7988E+07  0.4616E+10  0.1827E+11  0.0000E+00  0.4303E+08  0.8442E+08  0.4077E+01  0.5887E+07  0.2671E+06  0.1376E-04  0.7743E+07  0.2793E+06  0.1381E-04  0.1792E+08  0.9862E+06  0.4974E-04  0.0000E+00  0.0000E+00  0.0000E+00  0.1631E+06  0.9990E+04  0.5425E-06  0.8965E+06  0.9463E+05  0.4557E-05  0.2356E+06  0.5210E+06  0.0000E+00  0.0000E+00  0.0000E+00  0.0000E+00  0.0000E+00  0.0000E+00  0.0000E+00  0.0000E+00  0.0000E+00  0.0000E+00  0.0000E+00  0.0000E+00
RES          8   11  0.4004E+13  0.8451E+07  0.9942E+07  0.9017E+10  0.2096E+11  0.0000E+00  0.8473E+08  0.1060E+09  0.4113E+01  0.4539E+08  0.4279E+07  0.1484E-03  0.2703E+08  0.2581E+06  0.1179E-04  0.1302E+08  0.1273E+07  0.5143E-04  0.0000E+00  0.0000E+00  0.0000E+00  0.7677E+06  0.6415E+05  0.2231E-05  0.4573E+07  0.1208E+06  0.5545E-05  0.4232E+06  0.4772E+06  0.0000E+00  0.0000E+00  0.0000E+00  0.0000E+00  0.0000E+00  0.0000E+00  0.0000E+00  0.0000E+00  0.0000E+00  0.0000E+00  0.0000E+00  0.0000E+00
RES          9   11  0.6664E+13  0.1403E+08  0.1647E+08  0.1355E+11  0.3251E+11  0.0000E+00  0.1060E+09  0.1746E+09  0.4089E+01  0.1375E+08  0.9684E+04  0.2798E-06  0.9447E+07  0.2119E+06  0.5274E-05  0.4112E+08  0.8069E+05  0.2316E-05  0.0000E+00  0.0000E+00  0.0000E+00  0.6596E+06  0.5777E+03  0.1682E-07  0.2909E+07  0.1617E+06  0.4002E-05  0.3893E+06  0.6080E+06  0.0000E+00  0.0000E+00  0.0000E+00  0.0000E+00  0.0000E+00  0.0000E+00  0.0000E+00  0.0000E+00  0.0000E+00  0.0000E+00  0.0000E+00  0.0000E+00
RES         10   11  0.9514E+13  0.1969E+08  0.2302E+08  0.5432E+11  0.5965E+11  0.0000E+00  0.1753E+09  0.2448E+09  0.4102E+01  0.1279E+10  0.0000E+00  0.0000E+00  0.4092E+09  0.0000E+00  0.0000E+00  0.6794E+08  0.0000E+00  0.0000E+00  0.9831E+05  0.0000E+00  0.0000E+00  0.1093E+09  0.0000E+00  0.0000E+00  0.1222E+09  0.0000E+00  0.0000E+00  0.5067E+06  0.0000E+00  0.0000E+00  0.0000E+00  0.0000E+00  0.0000E+00  0.0000E+00  0.0000E+00  0.0000E+00  0.0000E+00  0.0000E+00  0.0000E+00  0.0000E+00  0.0000E+00
RES          1   12  0.1618E+13  0.3290E+07  0.3684E+07  0.1328E+09  0.3096E+11  0.0000E+00  0.4109E+05  0.3959E+08  0.4013E+01  0.7769E+08  0.2551E+05  0.3033E-05  0.3217E+08  0.6289E+05  0.7178E-05  0.2236E+08  0.6827E+05  0.8398E-05  0.0000E+00  0.0000E+00  0.0000E+00  0.2130E+07  0.8618E+03  0.1029E-06  0.2922E+07  0.1815E+05  0.2138E-05  0.0000E+00  0.1135E+06  0.3092E+02  0.0000E+00  0.0000E+00  0.0000E+00  0.0000E+00  0.0000E+00  0.0000E+00  0.0000E+00  0.0000E+00  0.0000E+00  0.0000E+00  0.0000E+00
RES          2   12  0.1277E+11  0.2531E+04  0.3379E+04  0.1523E+09  0.1395E+09  0.0000E+00  0.1560E+07  0.3894E+05  0.4269E+01  0.2117E+06  0.1923E+05  0.2144E-02  0.1095E+06  0.2627E+04  0.2826E-03  0.3625E+05  0.4221E+04  0.4604E-03  0.4637E+03  0.1753E+03  0.1724E-04  0.6068E+04  0.2001E+04  0.2007E-03  0.8112E+04  0.7120E+03  0.7378E-04  0.0000E+00  0.2313E+04  0.0000E+00  0.0000E+00  0.0000E+00  0.0000E+00  0.0000E+00  0.0000E+00  0.0000E+00  0.0000E+00  0.0000E+00  0.0000E+00  0.0000E+00  0.0000E+00
RES          3   12  0.1445E+11  0.4794E+04  0.5853E+04  0.1494E+09  0.1996E+09  0.0000E+00  0.1552E+06  0.6350E+05  0.4043E+01  0.7181E+05  0.1615E+05  0.1003E-02  0.2132E+05  0.3035E+04  0.1888E-03  0.2948E+05  0.6107E+04  0.3796E-03  0.1735E+03  0.7572E+02  0.4253E-05  0.4035E+04  0.1636E+04  0.9484E-04  0.4444E+04  0.7575E+03  0.4544E-04  0.1559E+04  0.2867E+04  0.1741E+02  0.0000E+00  0.0000E+00  0.0000E+00  0.0000E+00  0.0000E+00  0.0000E+00  0.0000E+00  0.0000E+00  0.0000E+00  0.0000E+00  0.0000E+00
RES          4   12  0.1960E+11  0.1740E+05  0.2204E+05  0.3532E+09  0.3197E+09  0.0000E+00  0.5554E+05  0.2375E+06  0.4024E+01  0.7234E+06  0.2564E+06  0.4125E-02  0.3952E+06  0.1729E+05  0.2857E-03  0.1049E+06  0.2726E+05  0.4715E-03  0.6395E+02  0.2578E+02  0.3671E-06  0.1705E+05  0.5044E+04  0.8314E-04  0.1469E+06  0.9659E+04  0.1624E-03  0.1313E+04  0.1758E+05  0.1012E+02  0.0000E+00  0.0000E+00  0.0000E+00  0.0000E+00  0.0000E+00  0.0000E+00  0.0000E+00  0.0000E+00  0.0000E+00  0.0000E+00  0.0000E+00
RES          5   12  0.2143E+12  0.4228E+06  0.4856E+06  0.1610E+10  0.1695E+10  0.0000E+00  0.2339E+06  0.5228E+07  0.4019E+01  0.2456E+07  0.4778E+06  0.3542E-03  0.2495E+07  0.1505E+06  0.1137E-03  0.1998E+07  0.3811E+06  0.2907E-03  0.0000E+00  0.0000E+00  0.0000E+00  0.5874E+05  0.1101E+05  0.8249E-05  0.5339E+06  0.3507E+05  0.2677E-04  0.1036E+05  0.1591E+06  0.1477E+02  0.0000E+00  0.0000E+00  0.0000E+00  0.0000E+00  0.0000E+00  0.0000E+00  0.0000E+00  0.0000E+00  0.0000E+00  0.0000E+00  0.0000E+00
RES          6   12  0.9664E+12  0.1966E+07  0.2239E+07  0.2979E+10  0.7216E+10  0.0000E+00  0.5677E+07  0.2424E+08  0.4041E+01  0.8533E+08  0.1470E+07  0.2340E-03  0.5685E+08  0.2024E+06  0.3330E-04  0.1120E+08  0.8196E+06  0.1334E-03  0.0000E+00  0.0000E+00  0.0000E+00  0.1529E+07  0.1062E+06  0.1634E-04  0.7272E+07  0.5089E+05  0.8457E-05  0.8473E+05  0.2691E+06  0.0000E+00  0.0000E+00  0.0000E+00  0.0000E+00  0.0000E+00  0.0000E+00  0.0000E+00  0.0000E+00  0.0000E+00  0.0000E+00  0.0000E+00  0.0000E+00
RES          7   12  0.1817E+13  0.3774E+07  0.4311E+07  0.5246E+10  0.1272E+11  0.0000E+00  0.2427E+08  0.4706E+08  0.4075E+01  0.4628E+07  0.8361E+06  0.6492E-04  0.5256E+07  0.2828E+06  0.2309E-04  0.6405E+07  0.1199E+07  0.1022E-03  0.0000E+00  0.0000E+00  0.0000E+00  0.2193E+06  0.3920E+05  0.3141E-05  0.4724E+06  0.4404E+05  0.3916E-05  0.2317E+06  0.4077E+06  0.3873E+02  0.0000E+00  0.0000E+00  0.0000E+00  0.0000E+00  0.0000E+00  0.0000E+00  0.0000E+00  0.0000E+00  0.0000E+00  0.0000E+00  0.0000E+00
RES          8   12  0.2177E+13  0.4561E+07  0.5237E+07  0.0000E+00  0.1586E+11  0.0000E+00  0.4708E+08  0.5768E+08  0.4112E+01  0.5148E+07  0.2132E+07  0.1273E-03  0.2581E+07  0.4188E+06  0.2762E-04  0.3744E+07  0.1091E+07  0.7586E-04  0.0000E+00  0.0000E+00  0.0000E+00  0.1359E+06  0.3679E+05  0.2494E-05  0.7729E+06  0.1684E+06  0.1215E-04  0.3166E+06  0.6859E+06  0.3109E+02  0.0000E+00  0.0000E+00  0.0000E+00  0.0000E+00  0.0000E+00  0.0000E+00  0.0000E+00  0.0000E+00  0.0000E+00  0.0000E+00  0.0000E+00
RES          9   12  0.3685E+13  0.7701E+07  0.8804E+07  0.0000E+00  0.2436E+11  0.0000E+00  0.5768E+08  0.9634E+08  0.4086E+01  0.2960E+07  0.1985E+06  0.7706E-05  0.9162E+06  0.2150E+06  0.8891E-05  0.1019E+08  0.7783E+06  0.3293E-04  0.0000E+00  0.0000E+00  0.0000E+00  0.1595E+06  0.1198E+05  0.4889E-06  0.5107E+06  0.1314E+06  0.5626E-05  0.5420E+06  0.5227E+06  0.3250E+02  0.0000E+00  0.0000E+00  0.0000E+00  0.0000E+00  0.0000E+00  0.0000E+00  0.0000E+00  0.0000E+00  0.0000E+00  0.0000E+00  0.0000E+00
RES         10   12  0.4970E+13  0.1049E+08  0.1217E+08  0.1887E+09  0.4512E+11  0.0000E+00  0.9639E+08  0.1338E+09  0.4102E+01  0.1381E+09  0.2592E+07  0.7234E-04  0.5308E+08  0.4573E+05  0.1796E-05  0.1690E+08  0.6445E+06  0.2091E-04  0.0000E+00  0.0000E+00  0.0000E+00  0.5859E+07  0.1957E+06  0.5576E-05  0.2682E+08  0.5082E+05  0.2005E-05  0.4270E+06  0.1478E+06  0.3532E+02  0.0000E+00  0.0000E+00  0.0000E+00  0.0000E+00  0.0000E+00  0.0000E+00  0.0000E+00  0.0000E+00  0.0000E+00  0.0000E+00  0.0000E+00
RES          1 2009  0.1618E+13  0.1386E+09  0.1388E+09  0.6381E+13  0.1618E+13  0.0000E+00  0.2251E+08  0.7410E+10  0.3094E+01  0.2319E+11  0.3841E+09  0.2588E-04  0.9429E+10  0.1029E+07  0.1499E-05  0.9833E+09  0.7526E+07  0.6599E-05  0.0000E+00  0.0000E+00  0.0000E+00  0.3193E+09  0.3040E+07  0.2307E-06  0.4567E+09  0.1507E+06  0.1890E-05  0.0000E+00  0.2477E+07  0.3092E+02  0.0000E+00  0.0000E+00  0.0000E+00  0.0000E+00  0.0000E+00  0.0000E+00  0.0000E+00  0.0000E+00  0.0000E+00  0.0000E+00  0.0000E+00
RES          2 2009  0.1277E+11  0.1562E+05  0.1596E+05  0.1178E+11  0.3484E+10  0.0000E+00  0.2208E+09  0.5191E+07  0.7477E+01  0.2450E+10  0.1777E+08  0.3348E-01  0.6425E+09  0.1465E+05  0.9787E-04  0.7904E+07  0.8362E+05  0.2879E-03  0.7062E+05  0.1877E+04  0.8027E-05  0.4920E+08  0.5304E+06  0.1031E-02  0.1134E+08  0.5179E+04  0.2564E-04  0.0000E+00  0.1442E+05  0.0000E+00  0.0000E+00  0.0000E+00  0.0000E+00  0.0000E+00  0.0000E+00  0.0000E+00  0.0000E+00  0.0000E+00  0.0000E+00  0.0000E+00  0.0000E+00
RES          3 2009  0.1445E+11  0.1908E+05  0.1944E+05  0.1421E+11  0.4780E+10  0.0000E+00  0.2416E+08  0.2818E+07  0.4370E+01  0.1529E+09  0.1261E+08  0.1504E-01  0.5717E+08  0.4423E+05  0.1205E-03  0.1279E+07  0.1235E+06  0.2629E-03  0.1826E+04  0.3103E+03  0.8865E-06  0.1447E+07  0.2279E+06  0.2782E-03  0.1031E+07  0.6312E+04  0.1499E-04  0.1069E+05  0.4388E+05  0.1741E+02  0.0000E+00  0.0000E+00  0.0000E+00  0.0000E+00  0.0000E+00  0.0000E+00  0.0000E+00  0.0000E+00  0.0000E+00  0.0000E+00  0.0000E+00
RES          4 2009  0.1960E+11  0.4771E+05  0.4836E+05  0.2263E+11  0.8387E+10  0.0000E+00  0.1266E+08  0.6363E+07  0.4121E+01  0.8507E+09  0.1766E+08  0.1118E-01  0.5158E+09  0.3737E+05  0.5972E-04  0.7841E+07  0.2650E+06  0.2767E-03  0.4909E+03  0.4422E+02  0.5952E-07  0.3588E+07  0.6590E+05  0.5876E-04  0.4267E+08  0.2147E+05  0.3278E-04  0.2552E+05  0.4025E+05  0.1012E+02  0.0000E+00  0.0000E+00  0.0000E+00  0.0000E+00  0.0000E+00  0.0000E+00  0.0000E+00  0.0000E+00  0.0000E+00  0.0000E+00  0.0000E+00
RES          5 2009  0.2143E+12  0.1026E+08  0.1026E+08  0.2876E+12  0.1028E+12  0.0000E+00  0.2404E+08  0.5727E+09  0.3016E+01  0.2351E+10  0.5277E+09  0.1521E-02  0.1316E+10  0.1176E+07  0.2733E-04  0.3623E+08  0.5636E+07  0.1150E-03  0.0000E+00  0.0000E+00  0.0000E+00  0.5587E+08  0.1144E+08  0.2381E-04  0.1274E+09  0.1106E+06  0.8827E-05  0.2305E+05  0.1704E+07  0.1477E+02  0.0000E+00  0.0000E+00  0.0000E+00  0.0000E+00  0.0000E+00  0.0000E+00  0.0000E+00  0.0000E+00  0.0000E+00  0.0000E+00  0.0000E+00
RES          6 2009  0.9664E+12  0.5262E+08  0.5263E+08  0.8607E+12  0.3580E+12  0.0000E+00  0.6293E+09  0.3964E+10  0.3302E+01  0.1303E+11  0.7294E+09  0.6813E-03  0.5169E+10  0.1337E+07  0.1022E-04  0.3647E+09  0.1015E+08  0.4531E-04  0.1716E+05  0.3306E+03  0.1034E-07  0.4396E+09  0.1801E+08  0.4763E-04  0.5520E+09  0.1738E+06  0.3327E-05  0.1269E+07  0.2275E+07  0.0000E+00  0.0000E+00  0.0000E+00  0.0000E+00  0.0000E+00  0.0000E+00  0.0000E+00  0.0000E+00  0.0000E+00  0.0000E+00  0.0000E+00  0.0000E+00
RES          7 2009  0.1817E+13  0.9606E+08  0.9611E+08  0.2294E+13  0.5362E+12  0.0000E+00  0.3995E+10  0.1069E+11  0.3736E+01  0.1269E+11  0.1509E+10  0.7603E-03  0.5134E+10  0.2413E+07  0.9218E-05  0.2779E+09  0.1735E+08  0.3660E-04  0.0000E+00  0.0000E+00  0.0000E+00  0.1278E+09  0.1272E+08  0.2306E-04  0.2119E+09  0.2793E+06  0.1426E-05  0.2082E+07  0.4725E+07  0.3873E+02  0.0000E+00  0.0000E+00  0.0000E+00  0.0000E+00  0.0000E+00  0.0000E+00  0.0000E+00  0.0000E+00  0.0000E+00  0.0000E+00  0.0000E+00
RES          8 2009  0.2177E+13  0.1053E+09  0.1053E+09  0.3425E+13  0.7001E+12  0.0000E+00  0.1072E+11  0.1311E+11  0.3782E+01  0.9421E+10  0.9630E+09  0.3846E-03  0.3008E+10  0.1899E+07  0.9133E-05  0.2670E+09  0.2076E+08  0.3035E-04  0.0000E+00  0.0000E+00  0.0000E+00  0.8575E+08  0.9543E+07  0.1705E-04  0.1984E+09  0.4203E+06  0.2904E-05  0.4156E+07  0.3131E+07  0.3109E+02  0.0000E+00  0.0000E+00  0.0000E+00  0.0000E+00  0.0000E+00  0.0000E+00  0.0000E+00  0.0000E+00  0.0000E+00  0.0000E+00  0.0000E+00
RES          9 2009  0.3685E+13  0.2148E+09  0.2150E+09  0.7100E+13  0.1201E+13  0.0000E+00  0.1349E+11  0.2323E+11  0.3655E+01  0.4084E+11  0.9720E+09  0.7212E-04  0.1754E+11  0.2021E+07  0.3057E-05  0.1010E+10  0.1038E+08  0.9206E-05  0.0000E+00  0.0000E+00  0.0000E+00  0.6581E+09  0.1198E+08  0.3365E-05  0.1201E+10  0.4995E+06  0.1615E-05  0.2638E+07  0.4939E+07  0.3250E+02  0.0000E+00  0.0000E+00  0.0000E+00  0.0000E+00  0.0000E+00  0.0000E+00  0.0000E+00  0.0000E+00  0.0000E+00  0.0000E+00  0.0000E+00
RES         10 2009  0.4970E+13  0.2629E+09  0.2631E+09  0.7718E+13  0.1902E+13  0.0000E+00  0.2326E+11  0.3114E+11  0.3809E+01  0.3014E+11  0.8502E+09  0.5217E-04  0.1070E+11  0.6336E+06  0.1289E-05  0.8384E+09  0.1362E+08  0.7218E-05  0.2055E+06  0.2872E+04  0.2177E-07  0.1416E+10  0.2522E+08  0.2406E-05  0.2130E+10  0.2297E+06  0.1127E-05  0.4460E+07  0.1647E+07  0.3532E+02  0.0000E+00  0.0000E+00  0.0000E+00  0.0000E+00  0.0000E+00  0.0000E+00  0.0000E+00  0.0000E+00  0.0000E+00  0.0000E+00  0.0000E+00
