1
    SWAT May 6 2015    VER 2015/Rev 637                                                                  0/ 0/   0      0: 0: 0

    General Input/Output section (file.cio):                                        
    11/6/2015 12:00:00 AM ARCGIS-SWAT interface AV                                  
                                                                                    
         Number of years in run:   22
         Area of watershed:   774994.125 km2
1
    SWAT May 6 2015    VER 2015/Rev 637                                             

    General Input/Output section (file.cio):                                        
    11/6/2015 12:00:00 AM ARCGIS-SWAT interface AV                                  
                                                                                    
Annual Summary for Watershed in year    1 of simulation

UNIT                                    PERCO    TILE                           WATER     SED     NO3     NO3     NO3     NO3        N       P       P
TIME     PREC    SURQ    LATQ     GWQ    LATE       Q     SW       ET     PET   YIELD   YIELD    SURQ    LATQ    PERC    CROP  ORGANIC SOLUBLE ORGANIC TILENO3
         (mm)    (mm)    (mm)    (mm)    (mm)    (mm)    (mm)    (mm)    (mm)    (mm)    (mm)   ------------------(kg nutrient/ha)-------------------- (kg/ha)
    1    9.17    0.07    0.00    0.00    0.00    0.00   68.28   26.42  101.42    0.06    0.02    0.00    0.00    0.00    0.93     0.03    0.00    0.00    0.00
    2   17.90    0.37    0.01    0.02    0.66    0.00   59.44   23.47  120.11    0.34    0.10    0.00    0.00    0.19    1.33     0.16    0.00    0.02    0.00
    3   37.16    1.96    0.02    0.34    1.39    0.00   38.59   52.73  151.50    2.16    0.72    0.03    0.00    0.34    4.56     1.58    0.00    0.19    0.00
    4  102.36    8.99    0.04    0.44    3.50    0.00   43.85   89.02  159.31    8.26    4.37    0.07    0.00    0.73    3.86     8.74    0.00    1.07    0.00
    5  215.24   25.87    0.11    3.83   44.22    0.00   78.16  111.90  137.05   23.49    2.36    0.03    0.00    7.91    6.41     4.35    0.01    0.54    0.00
    6  259.20   53.08    0.22   23.57   76.79    0.00   86.91  120.12  138.07   69.04    1.98    0.01    0.00    7.14    2.54     2.73    0.01    0.35    0.00
    7  335.98   75.71    0.47   55.56  139.59    0.00   94.17  112.57  119.98  118.10    4.10    0.01    0.01    7.16    2.31     1.81    0.01    0.24    0.00
    8  432.56  145.25    0.57  100.57  184.98    0.00   92.47  103.19  113.00  225.29    1.97    0.01    0.00    2.96    1.99     2.44    0.03    0.37    0.00
    9  312.81   84.82    0.54  131.63  128.19    0.00   85.55  106.24  120.37  245.04    1.41    0.01    0.00    0.90    1.25     1.67    0.03    0.30    0.00
   10  169.50   34.23    0.46  123.84   53.00    0.00   83.47   83.48  108.43  177.34    0.69    0.01    0.00    0.35    0.84     0.70    0.02    0.11    0.00
   11  104.91   14.99    0.34   85.45   36.18    0.00   74.84   62.34   97.35  113.92    1.36    0.01    0.00    0.22    0.31     0.56    0.01    0.08    0.00
   12   48.24    1.74    0.25   52.88    5.97    0.00   77.22   35.22   81.95   63.96    0.05    0.00    0.00    0.07    0.47     0.12    0.00    0.02    0.00

 1988 2045.01  447.08    3.02  578.13  674.47    0.00   77.22  926.71 1448.54 1047.00   19.14    0.20    0.02   27.98   26.80    24.90    0.11    3.29    0.00
1
    SWAT May 6 2015    VER 2015/Rev 637                                             

    General Input/Output section (file.cio):                                        
    11/6/2015 12:00:00 AM ARCGIS-SWAT interface AV                                  
                                                                                    
Annual Summary for Watershed in year    2 of simulation

UNIT                                    PERCO    TILE                           WATER     SED     NO3     NO3     NO3     NO3        N       P       P
TIME     PREC    SURQ    LATQ     GWQ    LATE       Q     SW       ET     PET   YIELD   YIELD    SURQ    LATQ    PERC    CROP  ORGANIC SOLUBLE ORGANIC TILENO3
         (mm)    (mm)    (mm)    (mm)    (mm)    (mm)    (mm)    (mm)    (mm)    (mm)    (mm)   ------------------(kg nutrient/ha)-------------------- (kg/ha)
    1   17.60    0.36    0.18   36.16   68.16    0.00   67.60   23.14  102.85   41.76    0.04    0.00    0.00    0.02    0.26     0.04    0.00    0.01    0.00
    2    9.63    0.44    0.47 1172.6013104.73    0.00   60.98   16.35  107.57 1192.42    0.03    0.00    0.00    0.01    0.07     0.01    0.00    0.00    0.00
    3   33.79    4.85    5.57 6005.37 8388.21    0.00   39.17   50.00  160.94 6126.88    0.86    0.01    0.00    0.05    2.90     0.42    0.00    0.05    0.00
    4  116.53   13.56   12.34 7043.22 3212.21    0.00   52.72   93.13  168.70 7252.53    5.78    0.01    0.00    0.12    3.55     1.41    0.00    0.18    0.00
    5  327.75   93.21   16.31 5225.91 1388.68    0.00   85.01  128.24  157.49 5515.20    2.21    0.01    0.00    0.81    3.20     1.75    0.03    0.28    0.00
    6  354.84  106.76   14.86 2939.81  139.20    0.00   92.73  100.47  110.33 3238.24    2.32    0.01    0.00    0.87    1.95     1.55    0.05    0.26    0.00
    7  364.67   97.36    9.56 1536.50  147.51    0.00   93.57  118.18  126.78 1801.39    2.33    0.01    0.00    0.34    1.76     0.81    0.04    0.13    0.00
    8  373.63   93.87    6.14  727.62  163.11    0.00   93.30  116.14  127.30  945.08    1.33    0.01    0.00    0.30    1.25     0.59    0.03    0.14    0.00
    9  318.99   90.07    3.97  365.95  124.70    0.00   87.04  110.01  126.65  548.86    1.38    0.01    0.00    0.30    1.07     0.63    0.03    0.16    0.00
   10  224.86   60.53    2.74  217.22   79.33    0.00   85.05   85.30  107.16  359.94    1.79    0.01    0.00    0.23    0.82     0.50    0.03    0.10    0.00
   11   89.21   18.55    1.82  127.87   29.23    0.00   68.04   57.15   99.15  220.86    0.37    0.00    0.00    0.12    0.29     0.30    0.01    0.06    0.00
   12   35.39    2.30    1.27   71.51    4.81    0.00   69.00   25.92   83.70  123.48    0.05    0.00    0.00    0.03    0.51     0.04    0.00    0.01    0.00

 1989 2266.89  581.87   75.2325469.7326849.88    0.00   69.00  924.02 1478.6427366.62   18.49    0.08    0.01    3.21   17.63     8.05    0.23    1.39    0.00
1
    SWAT May 6 2015    VER 2015/Rev 637                                             

    General Input/Output section (file.cio):                                        
    11/6/2015 12:00:00 AM ARCGIS-SWAT interface AV                                  
                                                                                    
Annual Summary for Watershed in year    3 of simulation

UNIT                                    PERCO    TILE                           WATER     SED     NO3     NO3     NO3     NO3        N       P       P
TIME     PREC    SURQ    LATQ     GWQ    LATE       Q     SW       ET     PET   YIELD   YIELD    SURQ    LATQ    PERC    CROP  ORGANIC SOLUBLE ORGANIC TILENO3
         (mm)    (mm)    (mm)    (mm)    (mm)    (mm)    (mm)    (mm)    (mm)    (mm)    (mm)   ------------------(kg nutrient/ha)-------------------- (kg/ha)
    1    9.46    0.19    1.27  364.34 2081.68    0.00   61.18   15.27  106.12  403.42    0.02    0.00    0.00    0.01    0.22     0.01    0.00    0.00    0.00
    2   33.49    8.39    3.16 3658.0321470.52    0.00   61.03   23.52  114.02 3742.53    0.05    0.00    0.00    0.05    0.22     0.08    0.00    0.01    0.00
    3   47.57    6.90   18.6012758.2119796.38    0.00   39.77   67.33  172.2313051.17    2.99    0.01    0.00    0.03    3.63     1.10    0.00    0.14    0.00
    4  211.06   44.89   21.8412816.05 1333.58    0.00   62.99  101.30  154.2213248.97    3.49    0.01    0.00    0.52    2.76     0.96    0.02    0.15    0.00
    5  311.34   95.00   18.35 7492.86  745.77    0.00   86.06  127.00  158.41 7964.57    4.39    0.01    0.00    0.51    2.25     1.59    0.04    0.26    0.00
    6  332.11  105.82   14.05 3525.74  118.69    0.00   88.65  104.34  120.60 3936.46    2.03    0.01    0.00    0.47    1.77     1.00    0.05    0.19    0.00
    7  383.02  110.74    9.74 1641.32  155.00    0.00   91.63  113.45  123.27 2012.73    2.08    0.01    0.00    0.19    1.66     0.76    0.05    0.14    0.00
    8  403.45  111.00    6.71  741.71  188.15    0.00   92.34  102.72  112.75 1047.05    2.94    0.01    0.00    0.24    1.18     0.60    0.04    0.14    0.00
    9  337.06   95.99    4.56  375.04  146.60    0.00   85.71  100.54  113.34  616.13    1.44    0.01    0.00    0.34    1.01     0.58    0.04    0.19    0.00
   10  183.83   45.25    3.28  234.72   64.47    0.00   74.25   85.31  120.44  410.32    0.50    0.01    0.00    0.13    0.70     0.39    0.03    0.09    0.00
   11   92.20   10.11    2.19  124.53   22.24    0.00   77.50   54.33  106.94  224.38    0.25    0.00    0.00    0.16    0.17     0.13    0.01    0.03    0.00
   12   19.46    2.14    1.58   64.62    1.16    0.00   64.02   28.93   94.40  134.94    0.07    0.00    0.00    0.01    0.45     0.08    0.00    0.02    0.00

 1990 2364.05  636.41  105.3343797.1646124.25    0.00   64.02  924.04 1496.7546792.68   20.25    0.08    0.00    2.67   16.03     7.28    0.27    1.36    0.00
1
    SWAT May 6 2015    VER 2015/Rev 637                                             

    General Input/Output section (file.cio):                                        
    11/6/2015 12:00:00 AM ARCGIS-SWAT interface AV                                  
                                                                                    
Annual Summary for Watershed in year    4 of simulation

UNIT                                    PERCO    TILE                           WATER     SED     NO3     NO3     NO3     NO3        N       P       P
TIME     PREC    SURQ    LATQ     GWQ    LATE       Q     SW       ET     PET   YIELD   YIELD    SURQ    LATQ    PERC    CROP  ORGANIC SOLUBLE ORGANIC TILENO3
         (mm)    (mm)    (mm)    (mm)    (mm)    (mm)    (mm)    (mm)    (mm)    (mm)    (mm)   ------------------(kg nutrient/ha)-------------------- (kg/ha)
    1    5.94    0.15    1.15  284.49 1812.84    0.00   56.20   13.32  107.06  335.71    0.03    0.00    0.00    0.01    0.21     0.01    0.00    0.00    0.00
    2   16.86    0.61    1.57 3159.5018779.60    0.00   57.42   14.86  101.16 3240.73    0.01    0.00    0.00    0.01    0.04     0.01    0.00    0.00    0.00
    3   19.51    1.33    9.5510517.3717701.81    0.00   33.31   44.95  157.3610758.67    0.47    0.00    0.00    0.01    2.67     0.17    0.00    0.02    0.00
    4   76.04   13.52   22.5412551.59 6242.63    0.00   36.98   60.62  163.2112935.99    4.32    0.01    0.00    0.05    2.22     1.07    0.00    0.14    0.00
    5  287.01   69.69   25.34 8997.81 1373.12    0.00   87.50  117.87  151.19 9456.18    4.60    0.01    0.00    0.82    2.83     1.25    0.03    0.22    0.00
    6  322.91   98.34   18.58 4606.38  115.49    0.00   94.57  101.58  118.43 5030.35    1.59    0.01    0.00    0.63    1.95     0.91    0.04    0.18    0.00
    7  347.43   94.49   12.48 2190.59  139.53    0.00   91.62  115.61  125.88 2564.98    1.85    0.01    0.00    0.21    1.62     0.57    0.05    0.11    0.00
    8  390.40  117.13    8.26  967.37  159.84    0.00   92.76  111.61  125.95 1294.51    1.40    0.01    0.00    0.16    1.17     0.57    0.05    0.16    0.00
    9  302.16   75.16    5.48  450.22  124.61    0.00   92.97  101.69  117.21  692.68    0.74    0.01    0.00    0.28    0.97     0.42    0.04    0.13    0.00
   10  219.04   56.28    3.94  255.94   92.85    0.00   85.51   76.48   97.55  448.38    3.71    0.01    0.00    0.17    0.81     0.46    0.03    0.10    0.00
   11  120.65   17.78    2.63  147.95   40.63    0.00   82.54   62.16   96.45  264.76    0.25    0.00    0.00    0.16    0.36     0.19    0.01    0.05    0.00
   12   25.12    1.10    1.90   83.10    4.49    0.00   66.88   34.08   90.13  160.22    0.04    0.00    0.00    0.01    0.60     0.04    0.00    0.01    0.00

 1991 2133.08  545.58  113.4244212.3246587.45    0.00   66.88  854.82 1451.5747183.16   19.02    0.06    0.00    2.52   15.47     5.66    0.25    1.14    0.00
1
    SWAT May 6 2015    VER 2015/Rev 637                                             

    General Input/Output section (file.cio):                                        
    11/6/2015 12:00:00 AM ARCGIS-SWAT interface AV                                  
                                                                                    
Annual Summary for Watershed in year    5 of simulation

UNIT                                    PERCO    TILE                           WATER     SED     NO3     NO3     NO3     NO3        N       P       P
TIME     PREC    SURQ    LATQ     GWQ    LATE       Q     SW       ET     PET   YIELD   YIELD    SURQ    LATQ    PERC    CROP  ORGANIC SOLUBLE ORGANIC TILENO3
         (mm)    (mm)    (mm)    (mm)    (mm)    (mm)    (mm)    (mm)    (mm)    (mm)    (mm)   ------------------(kg nutrient/ha)-------------------- (kg/ha)
    1    7.47    0.18    1.45  331.19 1278.55    0.00   60.38   12.95  101.76  388.08    0.01    0.00    0.00    0.01    0.19     0.01    0.00    0.00    0.00
    2   19.82    1.11    1.83 3103.0319712.40    0.00   59.82   17.31  112.33 3188.46    0.04    0.00    0.00    0.02    0.06     0.02    0.00    0.00    0.00
    3   64.39    5.28    5.59 9651.8310019.95    0.00   52.09   64.68  154.39 9881.39    1.89    0.01    0.00    0.10    3.43     0.65    0.00    0.08    0.00
    4  132.60   21.60   11.64 9579.49 3903.84    0.00   57.10  102.26  177.79 9903.39    4.27    0.01    0.00    0.13    2.87     0.92    0.01    0.13    0.00
    5  315.87   90.33   10.81 6168.91  760.70    0.00   87.02  121.77  161.13 6550.65    3.02    0.01    0.00    0.54    2.13     1.46    0.04    0.28    0.00
    6  353.17  112.19    7.64 2954.43  125.89    0.00   94.88  106.55  118.97 3302.90    2.27    0.01    0.00    0.46    1.75     0.88    0.05    0.18    0.00
    7  360.70   97.84    5.78 1378.63  140.04    0.00   89.07  127.84  139.38 1684.83    3.21    0.01    0.00    0.18    1.49     0.60    0.05    0.12    0.00
    8  406.16  118.91    4.27  632.06  178.72    0.00   92.18  104.56  114.82  898.40    2.33    0.01    0.00    0.19    1.13     0.51    0.05    0.16    0.00
    9  347.04   94.58    3.08  329.73  144.65    0.00   94.82  104.51  117.75  555.07    1.39    0.01    0.00    0.30    0.97     0.53    0.05    0.18    0.00
   10  107.22   22.04    2.29  208.60   37.32    0.00   61.76   80.81  113.75  343.93    0.66    0.00    0.00    0.08    0.67     0.21    0.02    0.05    0.00
   11  100.14   11.80    1.53  107.96   21.28    0.00   76.43   51.39   99.65  190.45    1.48    0.00    0.00    0.14    0.19     0.11    0.01    0.03    0.00
   12   19.58    1.32    1.14   55.26    2.37    0.00   62.29   29.21   91.97  112.23    0.05    0.00    0.00    0.01    0.59     0.04    0.00    0.01    0.00

 1992 2234.16  577.19   57.0434501.1436325.73    0.00   62.29  923.84 1503.7036999.77   20.61    0.06    0.00    2.16   15.48     5.94    0.26    1.23    0.00
1
    SWAT May 6 2015    VER 2015/Rev 637                                             

    General Input/Output section (file.cio):                                        
    11/6/2015 12:00:00 AM ARCGIS-SWAT interface AV                                  
                                                                                    
Annual Summary for Watershed in year    6 of simulation

UNIT                                    PERCO    TILE                           WATER     SED     NO3     NO3     NO3     NO3        N       P       P
TIME     PREC    SURQ    LATQ     GWQ    LATE       Q     SW       ET     PET   YIELD   YIELD    SURQ    LATQ    PERC    CROP  ORGANIC SOLUBLE ORGANIC TILENO3
         (mm)    (mm)    (mm)    (mm)    (mm)    (mm)    (mm)    (mm)    (mm)    (mm)    (mm)   ------------------(kg nutrient/ha)-------------------- (kg/ha)
    1    5.68    0.59    1.12  343.67 7608.49    0.00   59.19   11.01  110.03  387.81    0.25    0.00    0.00    0.01    0.20     0.10    0.00    0.01    0.00
    2   31.44    1.16    2.13 3658.3917700.67    0.00   59.61   26.80  121.61 3743.98    0.32    0.00    0.00    0.02    0.12     0.11    0.00    0.01    0.00
    3   61.23    8.20   13.7711464.6915926.69    0.00   40.79   66.94  149.2111732.67    0.46    0.00    0.00    0.09    4.38     0.23    0.00    0.03    0.00
    4  136.48   14.24   21.0412045.33 1384.19    0.00   71.45   82.25  135.3612431.11    1.79    0.01    0.00    0.17    2.38     0.65    0.01    0.09    0.00
    5  311.90   94.24   15.64 7403.50  108.16    0.00   88.85  112.90  134.03 7853.35    6.69    0.01    0.00    0.45    1.71     1.89    0.04    0.33    0.00
    6  253.58   67.51   10.73 3340.21   80.13    0.00   89.93  104.63  124.11 3704.35    1.29    0.01    0.00    0.12    1.51     0.61    0.04    0.13    0.00
    7  309.32   73.67    7.94 1494.49  125.26    0.00   89.12  110.50  120.60 1811.50    1.55    0.01    0.00    0.15    1.29     0.41    0.04    0.09    0.00
    8  345.50   89.82    5.70  655.81  139.38    0.00   91.72  113.09  126.13  923.02    0.93    0.01    0.00    0.15    1.13     0.38    0.04    0.11    0.00
    9  275.26   54.13    3.99  320.40  114.60    0.00   86.70  111.12  124.93  519.10    0.73    0.01    0.00    0.22    0.97     0.29    0.03    0.13    0.00
   10  185.23   36.36    3.00  193.42   69.17    0.00   75.12   90.98  113.19  341.15    0.68    0.00    0.00    0.20    0.81     0.26    0.02    0.08    0.00
   11  124.98   16.10    2.05  110.21   41.48    0.00   86.45   52.79   79.95  206.42    0.15    0.00    0.00    0.22    0.31     0.15    0.01    0.04    0.00
   12   23.79    0.85    1.51   66.96    6.01    0.00   67.41   35.47   92.16  132.78    0.27    0.00    0.00    0.03    0.53     0.06    0.00    0.01    0.00

 1993 2064.38  456.87   88.6141097.1043304.22    0.00   67.41  918.49 1431.3243787.23   15.10    0.06    0.00    1.83   15.33     5.14    0.23    1.08    0.00
1
    SWAT May 6 2015    VER 2015/Rev 637                                             

    General Input/Output section (file.cio):                                        
    11/6/2015 12:00:00 AM ARCGIS-SWAT interface AV                                  
                                                                                    
Annual Summary for Watershed in year    7 of simulation

UNIT                                    PERCO    TILE                           WATER     SED     NO3     NO3     NO3     NO3        N       P       P
TIME     PREC    SURQ    LATQ     GWQ    LATE       Q     SW       ET     PET   YIELD   YIELD    SURQ    LATQ    PERC    CROP  ORGANIC SOLUBLE ORGANIC TILENO3
         (mm)    (mm)    (mm)    (mm)    (mm)    (mm)    (mm)    (mm)    (mm)    (mm)    (mm)   ------------------(kg nutrient/ha)-------------------- (kg/ha)
    1   10.73    0.43    1.19  153.14  725.78    0.00   63.27   13.23  102.69  199.70    0.02    0.00    0.00    0.01    0.17     0.01    0.00    0.00    0.00
    2   40.56    8.54    1.75 2327.2119898.51    0.00   68.37   24.67  118.67 2397.41    0.72    0.00    0.00    0.07    0.06     0.26    0.01    0.04    0.00
    3   36.08    5.63    9.36 8860.37 8223.80    0.00   38.50   62.78  160.51 9071.56    2.62    0.01    0.00    0.06    3.68     0.89    0.00    0.11    0.00
    4   98.25   14.83   15.71 8876.77 3986.16    0.00   49.59   61.18  158.58 9169.19    1.25    0.01    0.00    0.09    1.75     0.27    0.00    0.05    0.00
    5  280.41   67.15   16.30 6070.53  135.94    0.00   83.30  126.14  160.25 6412.52    2.41    0.01    0.00    0.42    2.49     0.99    0.02    0.19    0.00
    6  222.23   52.47   10.39 2927.63   67.81    0.00   85.98   98.99  119.13 3228.66    0.85    0.01    0.00    0.28    1.67     0.57    0.03    0.12    0.00
    7  287.33   58.65    7.25 1346.85  117.85    0.00   89.10  107.09  118.98 1600.59    1.24    0.00    0.00    0.30    1.43     0.37    0.03    0.08    0.00
    8  300.49   71.80    5.05  596.95  116.91    0.00   90.78  109.52  126.18  811.65    1.50    0.01    0.00    0.28    1.24     0.35    0.03    0.11    0.00
    9  311.05   78.71    3.48  293.25  139.99    0.00   93.84   88.74  101.15  477.53    0.67    0.01    0.00    0.28    1.03     0.42    0.04    0.14    0.00
   10  216.76   48.51    2.55  185.57   83.69    0.00   90.12   87.67  113.64  324.78    1.57    0.00    0.00    0.22    0.77     0.36    0.03    0.09    0.00
   11   48.48    6.82    1.74  115.33   16.17    0.00   66.16   48.51   91.57  201.19    0.48    0.00    0.00    0.06    0.29     0.15    0.01    0.03    0.00
   12   29.29    1.55    1.24   63.74    1.49    0.00   59.64   32.54  107.48  117.61    0.84    0.00    0.00    0.01    0.50     0.04    0.00    0.01    0.00

 1994 1881.67  415.09   76.0031817.3533514.11    0.00   59.64  861.07 1478.8334012.40   14.17    0.06    0.00    2.07   15.06     4.69    0.20    0.97    0.00
1
    SWAT May 6 2015    VER 2015/Rev 637                                             

    General Input/Output section (file.cio):                                        
    11/6/2015 12:00:00 AM ARCGIS-SWAT interface AV                                  
                                                                                    
Annual Summary for Watershed in year    8 of simulation

UNIT                                    PERCO    TILE                           WATER     SED     NO3     NO3     NO3     NO3        N       P       P
TIME     PREC    SURQ    LATQ     GWQ    LATE       Q     SW       ET     PET   YIELD   YIELD    SURQ    LATQ    PERC    CROP  ORGANIC SOLUBLE ORGANIC TILENO3
         (mm)    (mm)    (mm)    (mm)    (mm)    (mm)    (mm)    (mm)    (mm)    (mm)    (mm)   ------------------(kg nutrient/ha)-------------------- (kg/ha)
    1   15.41    0.46    0.95  289.33 1836.62    0.00   55.96   17.18  109.61  330.36    0.82    0.00    0.00    0.01    0.18     0.24    0.00    0.03    0.00
    2   15.87    0.57    2.28 3274.9921023.20    0.00   51.76   19.72  118.21 3351.95    0.04    0.00    0.00    0.01    0.09     0.02    0.00    0.00    0.00
    3   19.48    2.35   13.22 9804.7312081.59    0.00   27.00   44.88  161.0210036.13    1.09    0.00    0.00    0.01    3.15     0.34    0.00    0.04    0.00
    4  153.93   25.47   19.00 9965.51 1045.80    0.00   50.26   96.10  165.6010302.80    1.92    0.01    0.00    0.15    2.27     0.67    0.01    0.10    0.00
    5  268.35   65.00   18.64 6448.98 1314.80    0.00   73.67  122.54  156.18 6823.01    1.95    0.01    0.00    0.40    2.25     1.01    0.03    0.20    0.00
    6  347.33   95.27   13.91 3243.22  117.58    0.00   90.95  116.51  130.35 3593.23    2.52    0.01    0.00    0.42    1.60     0.99    0.05    0.21    0.00
    7  381.63  116.92    9.62 1545.09  152.18    0.00   92.61  110.05  119.24 1869.90    3.50    0.01    0.00    0.16    1.24     0.70    0.05    0.15    0.00
    8  338.86   94.33    6.53  703.47  132.40    0.00   88.64  115.46  130.29  971.69    1.23    0.01    0.00    0.15    1.06     0.43    0.05    0.13    0.00
    9  295.95   75.00    4.34  341.84  113.09    0.00   92.23  103.86  119.54  544.37    0.64    0.01    0.00    0.21    0.92     0.42    0.04    0.14    0.00
   10  264.54   74.95    3.15  204.49  112.64    0.00   86.19   81.41   99.46  378.89    2.78    0.01    0.00    0.23    0.72     0.56    0.04    0.13    0.00
   11   91.14   12.21    2.14  131.37   33.91    0.00   71.94   56.86   91.62  231.83    0.12    0.00    0.00    0.14    0.25     0.17    0.01    0.04    0.00
   12   58.73    4.49    1.54   76.55    7.62    0.00   75.55   40.05   95.09  139.62    0.05    0.00    0.00    0.06    0.56     0.04    0.00    0.01    0.00

 1995 2251.21  567.01   95.3136029.5637971.44    0.00   75.55  924.62 1496.2038573.78   16.64    0.05    0.00    1.93   14.29     5.59    0.29    1.19    0.00
1
    SWAT May 6 2015    VER 2015/Rev 637                                             

    General Input/Output section (file.cio):                                        
    11/6/2015 12:00:00 AM ARCGIS-SWAT interface AV                                  
                                                                                    
Annual Summary for Watershed in year    9 of simulation

UNIT                                    PERCO    TILE                           WATER     SED     NO3     NO3     NO3     NO3        N       P       P
TIME     PREC    SURQ    LATQ     GWQ    LATE       Q     SW       ET     PET   YIELD   YIELD    SURQ    LATQ    PERC    CROP  ORGANIC SOLUBLE ORGANIC TILENO3
         (mm)    (mm)    (mm)    (mm)    (mm)    (mm)    (mm)    (mm)    (mm)    (mm)    (mm)   ------------------(kg nutrient/ha)-------------------- (kg/ha)
    1    2.15    0.14    1.33  304.61 1416.81    0.00   63.66   13.62  104.53  350.91    0.19    0.00    0.00    0.01    0.16     0.07    0.00    0.01    0.00
    2   17.20    1.48    2.23 3537.1323707.64    0.00   59.51   21.35  125.01 3622.82    0.01    0.00    0.00    0.01    0.17     0.01    0.00    0.00    0.00
    3   68.56    4.34   15.7612171.0015053.41    0.00   51.43   68.89  156.2312448.89    2.34    0.01    0.00    0.03    4.50     0.61    0.00    0.08    0.00
    4  112.47   19.15   17.7411505.99 1681.21    0.00   48.85   92.73  158.8111891.67    6.02    0.01    0.00    0.10    2.19     0.85    0.01    0.12    0.00
    5  304.78   80.41   14.76 6931.24   95.22    0.00   91.52  108.13  134.49 7351.64    4.06    0.01    0.00    0.34    1.65     1.19    0.03    0.23    0.00
    6  312.02   92.33   10.13 3184.49  111.98    0.00   89.30  109.37  126.36 3562.55    1.87    0.01    0.00    0.22    1.37     0.85    0.05    0.19    0.00
    7  353.59   98.42    7.55 1450.19  139.00    0.00   89.13  115.54  126.50 1778.07    2.28    0.01    0.00    0.13    1.19     0.51    0.05    0.12    0.00
    8  321.28   78.92    5.42  643.91  127.16    0.00   91.68  112.02  126.41  907.31    1.71    0.01    0.00    0.14    1.04     0.37    0.04    0.12    0.00
    9  341.04   97.18    3.87  319.07  143.57    0.00   92.88   98.50  110.76  544.07    1.85    0.01    0.00    0.23    0.89     0.49    0.05    0.20    0.00
   10  243.37   63.49    2.93  203.25   93.97    0.00   87.12   90.53  114.65  376.68    1.82    0.01    0.00    0.21    0.72     0.36    0.03    0.10    0.00
   11  105.64   15.96    2.03  127.79   41.91    0.00   76.51   57.28   91.24  236.03    2.12    0.00    0.00    0.16    0.27     0.20    0.02    0.05    0.00
   12   24.62    2.17    1.48   77.28    2.62    0.00   65.88   28.98   83.06  144.62    0.07    0.00    0.00    0.02    0.64     0.06    0.00    0.01    0.00

 1996 2206.71  554.00   85.2240455.9542614.50    0.00   65.88  916.94 1458.0643215.27   24.34    0.06    0.00    1.61   14.78     5.57    0.27    1.22    0.00
1
    SWAT May 6 2015    VER 2015/Rev 637                                             

    General Input/Output section (file.cio):                                        
    11/6/2015 12:00:00 AM ARCGIS-SWAT interface AV                                  
                                                                                    
Annual Summary for Watershed in year   10 of simulation

UNIT                                    PERCO    TILE                           WATER     SED     NO3     NO3     NO3     NO3        N       P       P
TIME     PREC    SURQ    LATQ     GWQ    LATE       Q     SW       ET     PET   YIELD   YIELD    SURQ    LATQ    PERC    CROP  ORGANIC SOLUBLE ORGANIC TILENO3
         (mm)    (mm)    (mm)    (mm)    (mm)    (mm)    (mm)    (mm)    (mm)    (mm)    (mm)   ------------------(kg nutrient/ha)-------------------- (kg/ha)
    1    2.21    0.04    1.32  346.63 7580.12    0.00   61.38    9.19  107.48  396.06    0.00    0.00    0.00    0.01    0.16     0.01    0.00    0.00    0.00
    2   31.10    1.53    1.89 3732.6413578.79    0.00   64.43   20.66   99.88 3822.92    0.06    0.00    0.00    0.04    0.06     0.03    0.00    0.01    0.00
    3   68.29    4.21   11.6110793.2915519.34    0.00   63.95   60.14  147.0811048.42    0.14    0.00    0.00    0.06    3.81     0.09    0.00    0.02    0.00
    4  146.45   35.33   15.9510296.71 1715.61    0.00   52.92  106.27  165.9510662.78    4.86    0.01    0.00    0.22    2.64     1.55    0.01    0.23    0.00
    5  336.15   90.74   17.92 6584.09  826.97    0.00   89.22  126.76  156.45 6991.18    3.41    0.01    0.00    0.33    1.77     1.14    0.03    0.23    0.00
    6  312.90   90.89   11.73 3205.10  120.60    0.00   90.10   99.90  112.72 3571.06    1.71    0.01    0.00    0.22    1.43     0.77    0.05    0.17    0.00
    7  323.84   72.75    8.13 1497.95  138.06    0.00   91.96  110.51  120.03 1800.40    1.17    0.01    0.00    0.11    1.18     0.44    0.04    0.10    0.00
    8  380.24  109.51    5.60  674.76  154.21    0.00   90.90  116.88  131.10  945.00    2.00    0.01    0.00    0.16    1.07     0.46    0.04    0.15    0.00
    9  308.65   78.20    3.81  333.43  129.44    0.00   91.35  100.06  114.58  542.34    0.98    0.01    0.00    0.22    0.89     0.37    0.04    0.15    0.00
   10  182.51   41.37    2.73  202.18   61.32    0.00   87.66   83.30  105.37  354.17    1.57    0.00    0.00    0.14    0.71     0.28    0.03    0.08    0.00
   11  136.69   19.91    1.88  125.08   70.86    0.00   73.69   56.72   85.77  227.47    0.27    0.00    0.00    0.21    0.32     0.23    0.02    0.06    0.00
   12   37.34    2.68    1.35   79.93    3.88    0.00   72.12   30.56   85.87  142.95    0.07    0.00    0.00    0.02    0.41     0.06    0.00    0.02    0.00

 1997 2266.37  547.16   83.9337871.7939899.18    0.00   72.12  920.94 1432.2840504.74   16.23    0.06    0.00    1.74   14.44     5.43    0.27    1.19    0.00
1
    SWAT May 6 2015    VER 2015/Rev 637                                             

    General Input/Output section (file.cio):                                        
    11/6/2015 12:00:00 AM ARCGIS-SWAT interface AV                                  
                                                                                    
Annual Summary for Watershed in year   11 of simulation

UNIT                                    PERCO    TILE                           WATER     SED     NO3     NO3     NO3     NO3        N       P       P
TIME     PREC    SURQ    LATQ     GWQ    LATE       Q     SW       ET     PET   YIELD   YIELD    SURQ    LATQ    PERC    CROP  ORGANIC SOLUBLE ORGANIC TILENO3
         (mm)    (mm)    (mm)    (mm)    (mm)    (mm)    (mm)    (mm)    (mm)    (mm)    (mm)   ------------------(kg nutrient/ha)-------------------- (kg/ha)
    1   23.87    0.66    0.97  194.30  607.06    0.00   68.78   21.31   90.31  239.76    0.04    0.00    0.00    0.04    0.16     0.02    0.00    0.00    0.00
    2   13.15    1.43    1.20 1841.5017177.12    0.00   62.06   21.16  121.80 1898.66    0.60    0.00    0.00    0.01    0.05     0.29    0.00    0.04    0.00
    3   27.64    3.05    6.52 7459.20 9347.52    0.00   31.81   56.65  164.01 7633.37    1.33    0.00    0.00    0.03    2.98     0.38    0.00    0.05    0.00
    4  126.50   16.66   14.23 8303.65 1804.44    0.00   55.16   83.16  155.15 8568.27    3.47    0.01    0.00    0.08    2.67     0.62    0.00    0.09    0.00
    5  342.62   94.13   12.89 5624.21  674.57    0.00   91.52  115.33  134.12 5961.83    4.51    0.01    0.00    0.71    2.59     1.34    0.04    0.27    0.00
    6  330.62   94.03    8.93 2745.65  138.59    0.00   96.13   92.69  103.92 3053.69    2.06    0.01    0.00    0.31    1.48     0.76    0.05    0.17    0.00
    7  354.13   91.34    6.65 1300.78  139.27    0.00   91.65  127.28  137.77 1572.73    1.72    0.01    0.00    0.13    1.25     0.50    0.05    0.11    0.00
    8  356.78   91.66    4.81  598.83  160.41    0.00   93.43  102.17  111.60  828.38    1.38    0.01    0.00    0.17    1.07     0.38    0.04    0.12    0.00
    9  318.80   87.17    3.41  310.85  130.04    0.00   88.78  105.72  121.02  502.96    1.35    0.01    0.00    0.19    0.91     0.41    0.05    0.17    0.00
   10  290.42   82.05    2.59  210.60  121.38    0.00   83.02   92.25  115.72  372.34    2.44    0.01    0.00    0.19    0.74     0.53    0.04    0.14    0.00
   11  105.93   19.76    1.79  134.78   36.70    0.00   75.49   55.45   90.78  229.44    0.89    0.00    0.00    0.13    0.27     0.24    0.02    0.06    0.00
   12   27.67    1.34    1.28   77.08    4.21    0.00   67.40   28.86   83.55  131.61    0.03    0.00    0.00    0.02    0.46     0.04    0.00    0.01    0.00

 1998 2318.13  583.28   65.2728801.4430341.31    0.00   67.40  902.02 1429.7530993.05   19.82    0.06    0.00    2.02   14.63     5.52    0.30    1.23    0.00
1
    SWAT May 6 2015    VER 2015/Rev 637                                             

    General Input/Output section (file.cio):                                        
    11/6/2015 12:00:00 AM ARCGIS-SWAT interface AV                                  
                                                                                    
Annual Summary for Watershed in year   12 of simulation

UNIT                                    PERCO    TILE                           WATER     SED     NO3     NO3     NO3     NO3        N       P       P
TIME     PREC    SURQ    LATQ     GWQ    LATE       Q     SW       ET     PET   YIELD   YIELD    SURQ    LATQ    PERC    CROP  ORGANIC SOLUBLE ORGANIC TILENO3
         (mm)    (mm)    (mm)    (mm)    (mm)    (mm)    (mm)    (mm)    (mm)    (mm)    (mm)   ------------------(kg nutrient/ha)-------------------- (kg/ha)
    1    8.99    0.10    1.15  311.97 1383.55    0.00   60.80   13.88  100.88  352.12    0.01    0.00    0.00    0.01    0.16     0.01    0.00    0.00    0.00
    2   27.26    1.28    2.31 3042.6322078.22    0.00   58.83   27.77  122.02 3115.80    0.47    0.00    0.00    0.04    0.10     0.18    0.00    0.02    0.00
    3   56.99    5.05   11.88 9552.99 7667.97    0.00   46.40   63.76  156.76 9778.87    2.28    0.00    0.00    0.06    3.67     0.72    0.00    0.09    0.00
    4  114.60   14.91   15.60 8862.86 2239.41    0.00   55.46   84.70  157.93 9166.35    4.28    0.01    0.00    0.11    1.99     0.43    0.01    0.06    0.00
    5  288.51   75.09   20.70 5905.14 1441.96    0.00   87.84  123.82  164.03 6256.20    2.70    0.01    0.00    0.37    2.03     1.06    0.03    0.20    0.00
    6  301.29   77.97   14.06 3081.34  108.18    0.00   92.94  109.44  126.52 3405.33    1.56    0.01    0.00    0.27    1.64     0.68    0.04    0.15    0.00
    7  393.37  110.70    9.40 1485.14  153.65    0.00   90.18  130.91  142.76 1793.27    3.35    0.01    0.00    0.16    1.24     0.61    0.05    0.13    0.00
    8  390.73  108.48    6.23  685.77  166.14    0.00   94.47  111.02  122.16  948.47    2.10    0.01    0.00    0.17    1.05     0.49    0.05    0.16    0.00
    9  316.72   82.16    4.09  348.55  137.66    0.00   88.68  102.19  115.97  556.23    1.53    0.01    0.00    0.21    0.88     0.47    0.05    0.17    0.00
   10  208.04   49.06    2.89  217.00   84.22    0.00   78.82   84.29  107.88  365.78    2.12    0.00    0.00    0.16    0.68     0.34    0.03    0.09    0.00
   11  102.62   12.69    1.92  126.87   26.18    0.00   85.29   55.75   97.64  215.99    0.61    0.00    0.00    0.13    0.20     0.14    0.01    0.04    0.00
   12   25.13    1.25    1.36   71.13    3.61    0.00   70.50   33.55   90.44  129.26    0.03    0.00    0.00    0.03    0.39     0.05    0.00    0.01    0.00

 1999 2234.27  538.74   91.5933691.3935490.75    0.00   70.50  941.09 1504.9936083.66   21.05    0.06    0.00    1.71   14.01     5.16    0.27    1.14    0.00
1
    SWAT May 6 2015    VER 2015/Rev 637                                             

    General Input/Output section (file.cio):                                        
    11/6/2015 12:00:00 AM ARCGIS-SWAT interface AV                                  
                                                                                    
Annual Summary for Watershed in year   13 of simulation

UNIT                                    PERCO    TILE                           WATER     SED     NO3     NO3     NO3     NO3        N       P       P
TIME     PREC    SURQ    LATQ     GWQ    LATE       Q     SW       ET     PET   YIELD   YIELD    SURQ    LATQ    PERC    CROP  ORGANIC SOLUBLE ORGANIC TILENO3
         (mm)    (mm)    (mm)    (mm)    (mm)    (mm)    (mm)    (mm)    (mm)    (mm)    (mm)   ------------------(kg nutrient/ha)-------------------- (kg/ha)
    1   14.06    0.70    1.05  261.41 1313.57    0.00   65.14   16.93   97.49  304.14    0.03    0.00    0.00    0.01    0.16     0.02    0.00    0.00    0.00
    2   14.37    1.03    1.82 2928.0621627.96    0.00   60.78   21.20  123.07 3001.59    1.80    0.00    0.00    0.01    0.15     0.47    0.00    0.06    0.00
    3   22.49    1.18   13.96 9754.4510683.15    0.00   29.53   50.14  160.12 9981.08    0.27    0.00    0.00    0.01    3.34     0.06    0.00    0.01    0.00
    4  133.24   20.09   18.45 9979.17 1823.05    0.00   51.49   88.68  157.3610306.58    3.13    0.01    0.00    0.09    2.54     0.76    0.00    0.11    0.00
    5  448.07  145.07   14.18 6135.88  142.29    0.00   96.06  117.84  132.64 6549.85    4.83    0.01    0.00    0.70    2.20     1.83    0.05    0.37    0.00
    6  318.33   94.57    9.72 2800.28  110.11    0.00   90.09  119.47  136.93 3163.30    1.76    0.01    0.00    0.14    1.35     0.80    0.06    0.18    0.00
    7  368.36   93.86    7.30 1281.32  151.24    0.00   93.28  119.17  127.71 1573.31    2.72    0.01    0.00    0.14    1.16     0.45    0.04    0.10    0.00
    8  344.05   89.15    5.21  586.49  148.00    0.00   94.33  105.19  115.53  836.79    1.57    0.01    0.00    0.15    1.01     0.36    0.04    0.11    0.00
    9  320.07   89.39    3.67  305.53  143.01    0.00   94.45   86.97   97.77  508.31    1.20    0.01    0.00    0.21    0.85     0.40    0.04    0.16    0.00
   10  176.39   40.60    2.75  195.52   64.66    0.00   72.74   92.58  117.68  344.29    0.52    0.00    0.00    0.15    0.75     0.30    0.03    0.09    0.00
   11   42.99    7.16    1.84  110.65    8.72    0.00   54.31   45.14   95.81  194.13    0.29    0.00    0.00    0.04    0.21     0.08    0.01    0.03    0.00
   12   28.48    2.15    1.32   53.87    1.60    0.00   58.72   19.14   92.76  108.44    0.06    0.00    0.00    0.01    0.46     0.03    0.00    0.01    0.00

 2000 2230.91  584.95   81.2634392.6136217.38    0.00   58.72  882.45 1454.8736871.79   18.18    0.06    0.00    1.67   14.17     5.56    0.29    1.21    0.00
1
    SWAT May 6 2015    VER 2015/Rev 637                                             

    General Input/Output section (file.cio):                                        
    11/6/2015 12:00:00 AM ARCGIS-SWAT interface AV                                  
                                                                                    
Annual Summary for Watershed in year   14 of simulation

UNIT                                    PERCO    TILE                           WATER     SED     NO3     NO3     NO3     NO3        N       P       P
TIME     PREC    SURQ    LATQ     GWQ    LATE       Q     SW       ET     PET   YIELD   YIELD    SURQ    LATQ    PERC    CROP  ORGANIC SOLUBLE ORGANIC TILENO3
         (mm)    (mm)    (mm)    (mm)    (mm)    (mm)    (mm)    (mm)    (mm)    (mm)    (mm)   ------------------(kg nutrient/ha)-------------------- (kg/ha)
    1   21.44    2.65    1.14  292.46 1316.94    0.00   54.96   19.77  101.71  337.38    0.03    0.00    0.00    0.01    0.17     0.05    0.00    0.01    0.00
    2   19.51    2.88    1.53 2984.1019214.20    0.00   51.48   18.66  108.53 3059.05    0.04    0.00    0.00    0.04    0.04     0.04    0.00    0.01    0.00
    3   27.61    1.82   10.8410509.8220001.13    0.00   38.34   40.34  158.0010744.79    0.03    0.00    0.00    0.03    2.26     0.03    0.00    0.01    0.00
    4  152.42   32.58   18.2612405.73 1896.93    0.00   52.58   92.39  154.1012795.33    6.24    0.01    0.00    0.18    3.27     1.46    0.01    0.20    0.00
    5  432.74  149.18   15.99 7979.88  789.61    0.00   89.63  118.42  137.46 8463.80    5.87    0.01    0.00    0.51    2.26     1.65    0.06    0.34    0.00
    6  288.96   84.40   13.77 3920.83   94.83    0.00   91.83  107.07  123.61 4332.47    1.74    0.01    0.00    0.16    1.35     0.67    0.06    0.15    0.00
    7  333.71   81.96    9.39 1857.18  114.18    0.00   89.88  138.88  152.75 2199.35    1.78    0.01    0.00    0.11    1.25     0.40    0.04    0.09    0.00
    8  379.22  113.80    6.32  818.15  139.38    0.00   90.10  125.20  140.91 1114.26    1.30    0.01    0.00    0.13    1.07     0.41    0.05    0.18    0.00
    9  301.34   78.99    4.29  381.70  122.41    0.00   85.99  103.57  119.26  611.59    1.17    0.01    0.00    0.22    0.90     0.35    0.05    0.12    0.00
   10  270.36   75.15    3.11  222.21  112.11    0.00   87.45   81.08  100.94  412.68    3.32    0.01    0.00    0.19    0.72     0.37    0.04    0.11    0.00
   11   91.05   16.14    2.15  140.94   32.06    0.00   74.52   54.37   88.62  256.68    0.65    0.00    0.00    0.11    0.30     0.14    0.02    0.05    0.00
   12   27.42    4.81    1.54   81.78    2.47    0.00   63.75   29.89   90.79  155.66    0.11    0.00    0.00    0.02    0.60     0.05    0.01    0.01    0.00

 2001 2345.78  644.36   88.3441594.7943836.28    0.00   63.75  929.64 1476.6944483.05   22.28    0.06    0.00    1.72   14.19     5.63    0.33    1.29    0.00
1
    SWAT May 6 2015    VER 2015/Rev 637                                             

    General Input/Output section (file.cio):                                        
    11/6/2015 12:00:00 AM ARCGIS-SWAT interface AV                                  
                                                                                    
Annual Summary for Watershed in year   15 of simulation

UNIT                                    PERCO    TILE                           WATER     SED     NO3     NO3     NO3     NO3        N       P       P
TIME     PREC    SURQ    LATQ     GWQ    LATE       Q     SW       ET     PET   YIELD   YIELD    SURQ    LATQ    PERC    CROP  ORGANIC SOLUBLE ORGANIC TILENO3
         (mm)    (mm)    (mm)    (mm)    (mm)    (mm)    (mm)    (mm)    (mm)    (mm)    (mm)   ------------------(kg nutrient/ha)-------------------- (kg/ha)
    1   16.31    3.78    1.31  326.09 1981.55    0.00   61.85   14.34  105.03  382.71    1.72    0.00    0.00    0.02    0.16     0.54    0.00    0.07    0.00
    2   14.64    3.20    2.13 3160.8721555.99    0.00   56.01   18.53  108.91 3245.92    0.02    0.00    0.00    0.01    0.07     0.03    0.00    0.00    0.00
    3   65.38    8.01   12.77 9616.71 8053.15    0.00   50.65   61.39  155.80 9854.76    3.31    0.01    0.00    0.04    3.50     0.50    0.00    0.07    0.00
    4  111.71   18.18   17.75 9181.08 3181.25    0.00   51.21   79.84  154.07 9501.28    1.67    0.01    0.00    0.12    2.37     0.35    0.01    0.06    0.00
    5  329.05   89.36   19.16 6181.27  654.97    0.00   91.42  121.89  149.42 6558.99    4.25    0.01    0.00    0.37    2.16     1.13    0.04    0.22    0.00
    6  332.43   95.86   12.26 3016.44  136.88    0.00   97.52   92.96  104.23 3362.18    2.13    0.01    0.00    0.25    1.38     0.71    0.05    0.16    0.00
    7  346.39   85.29    8.67 1425.10  159.72    0.00   91.67  106.39  113.06 1722.85    1.33    0.01    0.00    0.15    1.20     0.49    0.05    0.11    0.00
    8  401.49  125.82    6.05  656.74  161.50    0.00   92.81  112.30  123.58  923.94    2.15    0.01    0.00    0.16    1.05     0.44    0.05    0.12    0.00
    9  340.07  105.09    4.06  335.13  137.30    0.00   93.23   96.80  111.59  554.74    0.96    0.01    0.00    0.17    0.87     0.42    0.05    0.18    0.00
   10  269.18   79.06    3.01  222.16  118.96    0.00   83.76   77.80   95.32  414.91    2.18    0.01    0.00    0.15    0.73     0.55    0.05    0.16    0.00
   11   50.46    8.04    2.02  135.55    9.28    0.00   60.98   55.87  105.57  228.87    0.75    0.00    0.00    0.04    0.28     0.11    0.01    0.03    0.00
   12   35.69    2.01    1.45   69.25    2.85    0.00   58.67   31.06   87.67  128.92    0.08    0.00    0.00    0.02    0.38     0.04    0.00    0.01    0.00

 2002 2312.78  623.69   90.6434326.3936153.39    0.00   58.67  869.16 1414.2536880.07   20.55    0.06    0.00    1.48   14.14     5.31    0.30    1.18    0.00
1
    SWAT May 6 2015    VER 2015/Rev 637                                             

    General Input/Output section (file.cio):                                        
    11/6/2015 12:00:00 AM ARCGIS-SWAT interface AV                                  
                                                                                    
Annual Summary for Watershed in year   16 of simulation

UNIT                                    PERCO    TILE                           WATER     SED     NO3     NO3     NO3     NO3        N       P       P
TIME     PREC    SURQ    LATQ     GWQ    LATE       Q     SW       ET     PET   YIELD   YIELD    SURQ    LATQ    PERC    CROP  ORGANIC SOLUBLE ORGANIC TILENO3
         (mm)    (mm)    (mm)    (mm)    (mm)    (mm)    (mm)    (mm)    (mm)    (mm)    (mm)   ------------------(kg nutrient/ha)-------------------- (kg/ha)
    1    9.42    0.19    1.31  323.11 1398.21    0.00   53.77   12.22   98.69  367.47    0.02    0.00    0.00    0.01    0.16     0.01    0.00    0.00    0.00
    2   18.92    1.13    2.44 2961.7422161.26    0.00   53.81   17.30  120.12 3035.89    0.24    0.00    0.00    0.03    0.07     0.08    0.00    0.01    0.00
    3   49.96    2.59   12.29 9581.3010142.47    0.00   38.03   61.08  157.64 9807.43    1.00    0.00    0.00    0.05    3.44     0.29    0.00    0.04    0.00
    4  210.16   49.07   18.28 9643.79  865.97    0.00   64.55  104.09  142.26 9987.67    6.35    0.01    0.00    0.37    3.28     1.30    0.02    0.20    0.00
    5  367.81  116.33   13.39 5902.32  101.95    0.00   89.08  130.70  152.33 6301.65    5.31    0.01    0.00    0.35    1.59     1.37    0.05    0.28    0.00
    6  385.14  124.64    9.15 2672.49  141.39    0.00   94.72  112.73  125.47 3026.49    2.29    0.01    0.00    0.18    1.35     0.78    0.06    0.18    0.00
    7  381.68   99.24    6.89 1235.20  166.00    0.00   93.98  116.29  123.52 1542.03    4.64    0.01    0.00    0.14    1.17     0.52    0.05    0.12    0.00
    8  423.48  136.00    5.02  579.45  179.34    0.00   91.88  109.36  119.42  851.27    3.42    0.01    0.00    0.15    1.04     0.44    0.05    0.15    0.00
    9  374.54  112.41    3.58  314.43  156.80    0.00   88.91  107.62  120.16  542.26    1.56    0.01    0.00    0.21    0.90     0.44    0.05    0.18    0.00
   10  220.00   55.56    2.63  211.25   86.10    0.00   86.08   80.38  102.97  375.29    1.03    0.00    0.00    0.14    0.70     0.31    0.03    0.10    0.00
   11   60.72    8.19    1.80  129.72   20.09    0.00   62.61   55.00   96.97  223.20    0.92    0.00    0.00    0.06    0.27     0.11    0.01    0.03    0.00
   12   14.94    0.44    1.28   68.43    1.02    0.00   49.50   25.93   98.82  123.47    0.02    0.00    0.00    0.00    0.45     0.01    0.00    0.00    0.00

 2003 2516.77  705.80   78.0733623.2135420.61    0.00   49.50  932.71 1458.3736184.13   26.79    0.06    0.00    1.70   14.42     5.67    0.32    1.29    0.00
1
    SWAT May 6 2015    VER 2015/Rev 637                                             

    General Input/Output section (file.cio):                                        
    11/6/2015 12:00:00 AM ARCGIS-SWAT interface AV                                  
                                                                                    
Annual Summary for Watershed in year   17 of simulation

UNIT                                    PERCO    TILE                           WATER     SED     NO3     NO3     NO3     NO3        N       P       P
TIME     PREC    SURQ    LATQ     GWQ    LATE       Q     SW       ET     PET   YIELD   YIELD    SURQ    LATQ    PERC    CROP  ORGANIC SOLUBLE ORGANIC TILENO3
         (mm)    (mm)    (mm)    (mm)    (mm)    (mm)    (mm)    (mm)    (mm)    (mm)    (mm)   ------------------(kg nutrient/ha)-------------------- (kg/ha)
    1    8.67    0.08    1.44  401.85 2445.27    0.00   48.74    8.54  109.19  445.72    0.01    0.00    0.00    0.01    0.17     0.01    0.00    0.00    0.00
    2   22.75    2.81    3.66 3983.4523779.47    0.00   49.96   18.83  121.99 4076.72    0.06    0.00    0.00    0.01    0.17     0.03    0.00    0.01    0.00
    3   64.41    6.75   17.5312799.3516771.68    0.00   39.82   67.28  156.7013095.52    1.47    0.00    0.00    0.03    3.55     0.55    0.00    0.07    0.00
    4  142.23   28.21   22.0212411.60 2626.09    0.00   63.94   81.61  155.5512831.13    6.85    0.01    0.00    0.13    2.25     0.86    0.01    0.13    0.00
    5  350.61   99.74   18.31 7748.31  130.85    0.00   94.07  114.03  135.78 8217.85    3.46    0.01    0.00    0.56    1.99     1.16    0.04    0.24    0.00
    6  354.85  105.30   12.53 3588.14  126.68    0.00   90.36  126.12  143.74 4005.75    1.91    0.01    0.00    0.27    1.45     0.80    0.06    0.18    0.00
    7  406.42  117.46    9.28 1637.81  155.49    0.00   94.42  128.56  139.00 2005.40    2.43    0.01    0.00    0.14    1.21     0.49    0.06    0.11    0.00
    8  412.72  123.55    6.70  739.05  194.61    0.00   93.83   94.28  103.49 1053.98    1.62    0.01    0.00    0.16    1.00     0.43    0.05    0.14    0.00
    9  390.51  121.11    4.77  378.95  167.55    0.00   92.54  102.42  113.77  649.24    2.74    0.01    0.00    0.24    0.88     0.53    0.06    0.21    0.00
   10  222.32   55.52    3.54  237.86   84.59    0.00   90.70   83.31  106.03  426.21    0.94    0.00    0.00    0.17    0.70     0.32    0.04    0.09    0.00
   11   68.78   13.07    2.41  143.18   23.79    0.00   69.62   52.51  100.70  256.20    0.31    0.00    0.00    0.08    0.20     0.13    0.01    0.03    0.00
   12   23.51    0.86    1.73   76.83    1.43    0.00   63.28   26.62   88.56  148.09    0.07    0.00    0.00    0.01    0.63     0.03    0.00    0.01    0.00

 2004 2467.79  674.45  103.9344146.3946507.50    0.00   63.28  904.10 1474.5147211.80   21.87    0.06    0.00    1.81   14.21     5.32    0.34    1.22    0.00
1
    SWAT May 6 2015    VER 2015/Rev 637                                             

    General Input/Output section (file.cio):                                        
    11/6/2015 12:00:00 AM ARCGIS-SWAT interface AV                                  
                                                                                    
Annual Summary for Watershed in year   18 of simulation

UNIT                                    PERCO    TILE                           WATER     SED     NO3     NO3     NO3     NO3        N       P       P
TIME     PREC    SURQ    LATQ     GWQ    LATE       Q     SW       ET     PET   YIELD   YIELD    SURQ    LATQ    PERC    CROP  ORGANIC SOLUBLE ORGANIC TILENO3
         (mm)    (mm)    (mm)    (mm)    (mm)    (mm)    (mm)    (mm)    (mm)    (mm)    (mm)   ------------------(kg nutrient/ha)-------------------- (kg/ha)
    1   21.16    0.38    1.59  335.96 1445.52    0.00   64.73   15.93   94.48  389.76    0.03    0.00    0.00    0.01    0.16     0.02    0.00    0.00    0.00
    2   44.49   10.22    1.75 2444.6318992.32    0.00   73.03   25.39  105.51 2523.70    0.23    0.00    0.00    0.08    0.07     0.14    0.00    0.02    0.00
    3   23.19    2.93   10.47 8783.4511588.23    0.00   32.44   58.12  177.39 8994.82    1.73    0.00    0.00    0.01    2.89     0.53    0.00    0.07    0.00
    4  171.28   36.01   17.19 9554.37 1552.07    0.00   59.48   87.26  141.08 9876.96    3.41    0.01    0.00    0.23    2.66     0.70    0.01    0.11    0.00
    5  323.47   91.52   17.24 6284.65 1411.35    0.00   88.31  114.21  136.35 6669.28    9.24    0.01    0.00    0.46    2.11     1.49    0.04    0.28    0.00
    6  334.58   99.26   15.63 3250.42  129.27    0.00   94.44   99.22  113.55 3598.03    2.22    0.01    0.00    0.21    1.34     0.65    0.05    0.15    0.00
    7  384.73  104.48   10.17 1640.87  161.20    0.00   93.41  119.24  127.38 1961.67    2.96    0.01    0.00    0.14    1.20     0.57    0.05    0.13    0.00
    8  406.57  127.52    6.61  766.80  164.81    0.00   93.98  112.87  124.90 1043.66    4.73    0.01    0.00    0.14    1.04     0.42    0.05    0.12    0.00
    9  368.04  104.21    4.34  387.61  170.48    0.00   92.84   93.74  102.58  614.87    1.39    0.01    0.00    0.22    0.86     0.45    0.05    0.19    0.00
   10  210.06   56.36    3.04  238.40   67.87    0.00   92.09   86.30  111.29  400.06    0.61    0.00    0.00    0.14    0.71     0.30    0.03    0.09    0.00
   11  115.40   20.50    2.02  136.74   44.68    0.00   86.82   52.97   88.29  244.70    0.26    0.00    0.00    0.18    0.29     0.18    0.02    0.05    0.00
   12   20.96    1.08    1.43   82.04    4.35    0.00   66.55   34.88   94.06  147.04    0.03    0.00    0.00    0.02    0.55     0.05    0.01    0.01    0.00

 2005 2423.93  654.46   91.4733905.9335732.16    0.00   66.55  900.13 1416.8636464.54   26.84    0.06    0.00    1.86   13.88     5.49    0.31    1.23    0.00
1
    SWAT May 6 2015    VER 2015/Rev 637                                             

    General Input/Output section (file.cio):                                        
    11/6/2015 12:00:00 AM ARCGIS-SWAT interface AV                                  
                                                                                    
Annual Summary for Watershed in year   19 of simulation

UNIT                                    PERCO    TILE                           WATER     SED     NO3     NO3     NO3     NO3        N       P       P
TIME     PREC    SURQ    LATQ     GWQ    LATE       Q     SW       ET     PET   YIELD   YIELD    SURQ    LATQ    PERC    CROP  ORGANIC SOLUBLE ORGANIC TILENO3
         (mm)    (mm)    (mm)    (mm)    (mm)    (mm)    (mm)    (mm)    (mm)    (mm)    (mm)   ------------------(kg nutrient/ha)-------------------- (kg/ha)
    1   11.61    0.45    1.25  236.24 6993.45    0.00   64.92   13.38  109.99  281.24    0.04    0.00    0.00    0.01    0.16     0.02    0.00    0.00    0.00
    2   18.42    1.68    3.09 3731.9817109.61    0.00   59.65   20.07  118.37 3820.27    0.04    0.00    0.00    0.02    0.17     0.04    0.00    0.01    0.00
    3   55.79    5.34   13.6111695.8515730.76    0.00   42.89   65.11  159.0311967.44    1.25    0.00    0.00    0.06    3.83     0.46    0.00    0.06    0.00
    4  152.31   27.96   18.2411318.58  868.00    0.00   58.79   98.94  159.2911702.71    6.89    0.01    0.00    0.15    1.92     0.97    0.01    0.14    0.00
    5  370.62  114.77   14.98 6916.03  725.40    0.00   89.71  121.99  145.78 7349.95    7.00    0.01    0.00    0.64    1.83     1.30    0.04    0.27    0.00
    6  391.20  130.21   10.31 3216.10  151.12    0.00   94.07  104.79  117.14 3632.94    2.75    0.01    0.00    0.24    1.32     0.86    0.08    0.20    0.00
    7  365.91  104.14    7.69 1485.44  161.13    0.00   94.08   99.76  108.69 1827.73    4.70    0.01    0.00    0.13    1.12     0.43    0.06    0.10    0.00
    8  426.52  136.69    5.59  679.58  179.92    0.00   92.69  110.46  120.08  991.15    1.94    0.01    0.00    0.14    1.03     0.46    0.06    0.13    0.00
    9  375.03  114.49    3.98  352.27  162.79    0.00   95.84   93.94  104.44  596.66    1.95    0.01    0.00    0.20    0.88     0.45    0.05    0.20    0.00
   10  210.63   59.65    2.96  229.60   87.32    0.00   73.75   85.44  109.43  417.11    1.68    0.00    0.00    0.12    0.71     0.34    0.04    0.11    0.00
   11   34.59    2.94    2.00  133.61    5.33    0.00   59.12   40.16   99.93  228.95    0.03    0.00    0.00    0.02    0.18     0.06    0.01    0.02    0.00
   12   16.50    0.50    1.44   65.45    1.37    0.00   51.36   21.74   88.64  127.88    0.02    0.00    0.00    0.01    0.54     0.01    0.00    0.00    0.00

 2006 2429.14  698.81   85.1340060.7342176.19    0.00   51.36  875.79 1440.8142944.03   28.31    0.06    0.00    1.75   13.68     5.40    0.36    1.24    0.00
1
    SWAT May 6 2015    VER 2015/Rev 637                                             

    General Input/Output section (file.cio):                                        
    11/6/2015 12:00:00 AM ARCGIS-SWAT interface AV                                  
                                                                                    
Annual Summary for Watershed in year   20 of simulation

UNIT                                    PERCO    TILE                           WATER     SED     NO3     NO3     NO3     NO3        N       P       P
TIME     PREC    SURQ    LATQ     GWQ    LATE       Q     SW       ET     PET   YIELD   YIELD    SURQ    LATQ    PERC    CROP  ORGANIC SOLUBLE ORGANIC TILENO3
         (mm)    (mm)    (mm)    (mm)    (mm)    (mm)    (mm)    (mm)    (mm)    (mm)    (mm)   ------------------(kg nutrient/ha)-------------------- (kg/ha)
    1   25.00    0.40    1.04  162.73  604.94    0.00   55.52   17.36   99.14  208.65    0.04    0.00    0.00    0.01    0.17     0.02    0.00    0.00    0.00
    2   16.75    0.62    1.33 1875.7616960.15    0.00   52.48   19.85  110.70 1933.65    0.02    0.00    0.00    0.01    0.05     0.01    0.00    0.00    0.00
    3   88.33   15.32    7.52 7553.64 8644.83    0.00   54.60   62.14  143.93 7740.62    0.41    0.00    0.00    0.15    3.64     0.29    0.00    0.04    0.00
    4  170.59   34.65   12.55 7905.61 2115.40    0.00   75.03   93.90  150.11 8178.81    6.91    0.01    0.00    0.19    2.44     1.28    0.01    0.19    0.00
    5  313.76   93.15   13.78 5361.55  818.23    0.00   89.43  116.85  145.33 5693.13    5.18    0.01    0.00    0.30    1.68     1.08    0.04    0.22    0.00
    6  383.23  129.76   10.47 2761.38  154.92    0.00   91.47   95.80  106.72 3091.11    2.38    0.01    0.00    0.22    1.30     0.96    0.06    0.23    0.00
    7  352.67   95.18    7.18 1347.29  145.51    0.00   94.27  108.40  117.16 1627.45    2.37    0.01    0.00    0.12    1.14     0.50    0.05    0.11    0.00
    8  409.52  129.65    5.00  633.60  175.02    0.00   94.49  103.81  113.59  897.49    3.21    0.01    0.00    0.14    1.02     0.48    0.05    0.15    0.00
    9  353.48   95.87    3.41  333.15  152.33    0.00   90.31  108.80  120.80  533.71    1.51    0.01    0.00    0.21    0.89     0.39    0.05    0.18    0.00
   10  249.70   66.96    2.52  218.28  103.88    0.00   82.20   85.69  105.77  377.54    0.98    0.00    0.00    0.15    0.76     0.33    0.04    0.12    0.00
   11   91.80   15.01    1.69  136.75   23.91    0.00   72.53   61.30   98.52  226.12    1.19    0.00    0.00    0.10    0.32     0.13    0.01    0.03    0.00
   12   18.22    0.33    1.19   75.52    0.80    0.00   61.24   27.38   95.20  128.60    0.02    0.00    0.00    0.01    0.49     0.02    0.00    0.01    0.00

 2007 2473.05  676.89   67.6828365.2729899.92    0.00   61.24  901.28 1406.9830636.88   24.23    0.05    0.00    1.59   13.91     5.50    0.32    1.28    0.00
1
    SWAT May 6 2015    VER 2015/Rev 637                                             

    General Input/Output section (file.cio):                                        
    11/6/2015 12:00:00 AM ARCGIS-SWAT interface AV                                  
                                                                                    
Annual Summary for Watershed in year   21 of simulation

UNIT                                    PERCO    TILE                           WATER     SED     NO3     NO3     NO3     NO3        N       P       P
TIME     PREC    SURQ    LATQ     GWQ    LATE       Q     SW       ET     PET   YIELD   YIELD    SURQ    LATQ    PERC    CROP  ORGANIC SOLUBLE ORGANIC TILENO3
         (mm)    (mm)    (mm)    (mm)    (mm)    (mm)    (mm)    (mm)    (mm)    (mm)    (mm)   ------------------(kg nutrient/ha)-------------------- (kg/ha)
    1   11.51    0.31    0.85  153.10 1196.90    0.00   56.56   14.58  102.98  190.28    0.03    0.00    0.00    0.01    0.16     0.01    0.00    0.00    0.00
    2   35.90    4.68    1.38 2561.1916315.84    0.00   56.11   30.18  132.29 2627.57    0.43    0.00    0.00    0.04    0.27     0.16    0.00    0.02    0.00
    3   87.62    8.72    4.76 9039.03 9758.69    0.00   57.65   68.68  148.32 9244.39    1.22    0.01    0.00    0.13    4.09     0.51    0.00    0.07    0.00
    4  127.76   25.80    7.17 7862.41 1916.28    0.00   62.67   89.25  168.84 8140.66    3.05    0.01    0.00    0.12    1.79     0.74    0.01    0.11    0.00
    5  343.56  101.03    6.05 4663.39   98.68    0.00   91.27  118.13  137.12 4982.65    3.24    0.01    0.00    0.40    2.06     1.06    0.03    0.22    0.00
    6  295.36   87.62    4.30 2101.94   96.12    0.00   94.03  108.72  125.53 2393.54    1.79    0.01    0.00    0.19    1.43     0.78    0.05    0.18    0.00
    7  352.88   86.44    3.36  964.63  147.03    0.00   92.43  120.28  128.74 1218.03    1.43    0.01    0.00    0.14    1.23     0.47    0.05    0.10    0.00
    8  363.85   93.65    2.66  457.08  157.50    0.00   92.38  111.95  123.99  669.15    2.49    0.01    0.00    0.18    1.03     0.40    0.04    0.13    0.00
    9  328.88   87.53    1.99  257.37  141.53    0.00   87.34  104.27  117.45  434.33    0.96    0.01    0.00    0.18    0.89     0.40    0.04    0.17    0.00
   10  239.24   58.99    1.56  184.01  100.63    0.00   81.52   85.03  108.35  327.46    1.14    0.00    0.00    0.20    0.71     0.34    0.03    0.11    0.00
   11  117.41   13.05    1.10  120.35   40.98    0.00   90.61   51.05   85.75  199.88    0.17    0.00    0.00    0.20    0.19     0.13    0.01    0.04    0.00
   12   23.81    3.86    0.82   75.72    4.82    0.00   69.85   34.89   95.15  128.48    0.07    0.00    0.00    0.03    0.59     0.06    0.01    0.02    0.00

 2008 2327.81  571.69   36.0028440.2129974.99    0.00   69.85  937.01 1474.5230556.43   16.02    0.06    0.00    1.82   14.43     5.06    0.28    1.17    0.00
1
    SWAT May 6 2015    VER 2015/Rev 637                                             

    General Input/Output section (file.cio):                                        
    11/6/2015 12:00:00 AM ARCGIS-SWAT interface AV                                  
                                                                                    
Annual Summary for Watershed in year   22 of simulation

UNIT                                    PERCO    TILE                           WATER     SED     NO3     NO3     NO3     NO3        N       P       P
TIME     PREC    SURQ    LATQ     GWQ    LATE       Q     SW       ET     PET   YIELD   YIELD    SURQ    LATQ    PERC    CROP  ORGANIC SOLUBLE ORGANIC TILENO3
         (mm)    (mm)    (mm)    (mm)    (mm)    (mm)    (mm)    (mm)    (mm)    (mm)    (mm)   ------------------(kg nutrient/ha)-------------------- (kg/ha)
    1   17.63    0.42    0.67  322.35 1817.80    0.00   66.93   16.91  111.52  359.30    0.03    0.00    0.00    0.01    0.15     0.02    0.00    0.00    0.00
    2   12.53    0.54    1.92 3363.5020579.95    0.00   57.17   22.40  123.02 3438.58    0.02    0.00    0.00    0.01    0.18     0.01    0.00    0.00    0.00
    3   76.84    5.09   11.6410951.4215535.18    0.00   62.16   61.55  145.2311198.52    0.17    0.00    0.00    0.04    3.96     0.09    0.00    0.02    0.00
    4  158.23   27.71   16.8811031.75 1345.90    0.00   68.10  118.53  166.2111398.23    8.05    0.01    0.00    0.18    2.57     1.43    0.01    0.20    0.00
    5  338.57   96.80   17.36 6842.56  764.88    0.00   91.93  114.49  133.74 7266.27    5.51    0.01    0.00    0.41    1.59     1.18    0.04    0.24    0.00
    6  377.51  126.96   11.35 3237.58  136.59    0.00   92.83  112.39  125.42 3632.02    2.94    0.01    0.00    0.18    1.33     0.86    0.06    0.20    0.00
    7  339.40   85.30    7.92 1498.13  134.20    0.00   93.90  118.12  128.53 1820.62    2.00    0.01    0.00    0.11    1.15     0.43    0.05    0.10    0.00
    8  349.73   97.00    5.48  672.79  142.51    0.00   91.67  111.79  124.78  937.84    1.13    0.01    0.00    0.12    1.00     0.33    0.04    0.11    0.00
    9  309.22   77.96    3.72  333.97  128.01    0.00   88.94  105.51  118.57  549.45    0.79    0.01    0.00    0.19    0.86     0.36    0.04    0.14    0.00
   10  254.55   63.19    2.71  205.29  102.14    0.00   93.06   83.36  105.61  373.32    3.31    0.00    0.00    0.18    0.68     0.33    0.03    0.10    0.00
   11   48.30    9.12    1.85  124.75   12.00    0.00   71.69   48.21   93.68  219.44    0.26    0.00    0.00    0.05    0.20     0.10    0.01    0.02    0.00
   12   13.71    0.35    1.31   65.88    1.51    0.00   56.99   25.80   88.82  127.87    0.02    0.00    0.00    0.01    0.47     0.02    0.00    0.01    0.00

 2009 2296.21  590.44   82.8238649.9940700.66    0.00   56.99  939.06 1465.1441321.45   24.23    0.06    0.00    1.51   14.16     5.15    0.28    1.15    0.00
1
    SWAT May 6 2015    VER 2015/Rev 637                                             

    General Input/Output section (file.cio):                                        
    11/6/2015 12:00:00 AM ARCGIS-SWAT interface AV                                  
                                                                                    
    FINAL VALUES



                    IRRIGATION - AVE. ANNUAL
             HRU          NO.OF            VOLUME
             NO.       APPLICATIONS      APPLIED(MM)

               49            1             ********
               51            1             ********
               57            0             ********
               59            0             ********
               65            1             ********
               67            1             ********
               73            0             3674.629
               75            0             ********
               81            2             ********
               83            2             ********
               89            1             ********
               91            2             ********
               97            1             ********
               99            1             ********
              105            1             ********
              107            1             ********
              113            1             ********
              115            1             ********
              121            1             ********
              123            1             ********
              129            0             ********
              131            0             ********
              137            0             ********
              139            0             ********
              145            1             ********
              147            1             ********
              153            1             3213.054
              155            1             ********
              161            1             ********
              163            1             ********
              169            1             ********
              171            2             ********
              177            0               85.151
              179            0             1711.113
              185            0             ********
              187            2             ********
              193            1             ********
              195            2             ********
              201            0              135.767
              203            0             9244.574
              209            0             ********
              211            0             ********
              217            0             7254.494
              219            0             ********
              225            1             ********
              227            2             ********
              233            1             ********
              235            2             ********
              241            0             ********
              243            1             ********
              249            0             ********
              251            1             ********
              257            0             ********
              259            1             ********
              265            1             ********
              267            2             ********
              273            1             ********
              275            3             ********
              281            1             ********
              283            2             ********
              289            1             ********
              291            2             ********
              297            3             ********
              299            0             ********
              305            1             ********
              307            2             ********
              313            1             ********
              315            2             ********
              321            0             ********
              323            0             ********
              329            0             ********
              331            1             ********
              339            0             ********
              345            0             ********
              347            0             ********
              353            0             ********
              355            0             ********
              361            3             ********
              363            6             ********
              369            3             ********
              371            6             ********
1
    SWAT May 6 2015    VER 2015/Rev 637                                             

    General Input/Output section (file.cio):                                        
    11/6/2015 12:00:00 AM ARCGIS-SWAT interface AV                                  
                                                                                    
                                            Average Plant Values (kg/ha)

  HRU       1 SUB   1 IRRC  Yld =     0.0 BIOM =      9.1
  HRU       2 SUB   1 RICE  Yld =     0.0 BIOM =      8.9
  HRU       3 SUB   1 IRRU  Yld =     0.0 BIOM =      1.3
  HRU       4 SUB   1 AGRL  Yld =     0.0 BIOM =      1.3
  HRU       5 SUB   1 FRSE  Yld =  1037.5 BIOM =   3599.5
  HRU       6 SUB   1 RNGE  Yld =     0.0 BIOM =      0.8
  HRU       7 SUB   1 BARR  Yld =     0.0 BIOM =      0.0
  HRU       8 SUB   1 WETL  Yld =     0.0 BIOM =      2.2
  HRU       9 SUB   2 IRRC  Yld =     0.0 BIOM =     71.9
  HRU      10 SUB   2 RICE  Yld =     0.0 BIOM =     69.0
  HRU      11 SUB   2 IRRU  Yld =     0.0 BIOM =     18.3
  HRU      12 SUB   2 AGRL  Yld =     0.0 BIOM =     18.3
  HRU      13 SUB   2 FRSE  Yld =  2007.7 BIOM =   6965.6
  HRU      14 SUB   2 RNGE  Yld =     0.0 BIOM =     15.5
  HRU      15 SUB   2 BARR  Yld =     0.0 BIOM =      0.0
  HRU      16 SUB   2 WETL  Yld =     0.0 BIOM =     33.6
  HRU      17 SUB   3 IRRC  Yld =     0.0 BIOM =     23.5
  HRU      18 SUB   3 RICE  Yld =     0.0 BIOM =     22.6
  HRU      19 SUB   3 IRRU  Yld =     0.0 BIOM =      4.3
  HRU      20 SUB   3 AGRL  Yld =     0.0 BIOM =      4.3
  HRU      21 SUB   3 FRSE  Yld =  1469.0 BIOM =   5096.5
  HRU      22 SUB   3 RNGE  Yld =     0.0 BIOM =      2.9
  HRU      23 SUB   3 BARR  Yld =     0.0 BIOM =      0.0
  HRU      24 SUB   3 WETL  Yld =     0.0 BIOM =      7.4
  HRU      25 SUB   4 IRRC  Yld =     2.1 BIOM =    337.5
  HRU      26 SUB   4 RICE  Yld =     1.2 BIOM =    275.2
  HRU      27 SUB   4 IRRU  Yld =     0.1 BIOM =    164.3
  HRU      28 SUB   4 AGRL  Yld =     0.1 BIOM =    164.0
  HRU      29 SUB   4 FRSE  Yld =  5512.7 BIOM =   7875.3
  HRU      30 SUB   4 RNGE  Yld =     0.1 BIOM =    290.0
  HRU      31 SUB   4 BARR  Yld =     0.0 BIOM =      0.1
  HRU      32 SUB   4 WETL  Yld =     0.3 BIOM =    928.2
  HRU      33 SUB   5 IRRC  Yld =    29.1 BIOM =    999.2
  HRU      34 SUB   5 RICE  Yld =    10.1 BIOM =    589.4
  HRU      35 SUB   5 IRRU  Yld =     0.8 BIOM =    479.1
  HRU      36 SUB   5 AGRL  Yld =     0.8 BIOM =    472.4
  HRU      37 SUB   5 FRSE  Yld =  7091.9 BIOM =  10131.3
  HRU      38 SUB   5 RNGE  Yld =     0.3 BIOM =    814.0
  HRU      39 SUB   5 BARR  Yld =     0.0 BIOM =      0.1
  HRU      40 SUB   5 WETL  Yld =     1.1 BIOM =   3433.5
  HRU      41 SUB   6 IRRC  Yld =  8284.3 BIOM =  22120.6
  HRU      42 SUB   6 RICE  Yld =  1760.8 BIOM =   8903.5
  HRU      43 SUB   6 IRRU  Yld =   462.2 BIOM =   7540.9
  HRU      44 SUB   6 AGRL  Yld =   241.1 BIOM =   6305.8
  HRU      45 SUB   6 FRSE  Yld =  5047.7 BIOM =  17483.2
  HRU      46 SUB   6 RNGE  Yld =     2.2 BIOM =   6599.7
  HRU      47 SUB   6 BARR  Yld =     0.0 BIOM =      0.3
  HRU      48 SUB   6 WETL  Yld =     7.7 BIOM =  23443.2
  HRU      49 SUB   7 IRRC  Yld =  9551.5 BIOM =  24723.2
  HRU      50 SUB   7 RICE  Yld =  8601.6 BIOM =  22203.0
  HRU      51 SUB   7 IRRU  Yld =  7818.6 BIOM =  22427.1
  HRU      52 SUB   7 AGRL  Yld =  7420.3 BIOM =  21295.9
  HRU      53 SUB   7 FRSE  Yld =  5785.7 BIOM =  20009.5
  HRU      54 SUB   7 RNGE  Yld =   912.0 BIOM =  14317.9
  HRU      55 SUB   7 BARR  Yld =     0.0 BIOM =      0.7
  HRU      56 SUB   7 WETL  Yld =    21.7 BIOM =  55249.5
  HRU      57 SUB   8 IRRC  Yld =  8213.0 BIOM =  21272.8
  HRU      58 SUB   8 RICE  Yld =  7297.1 BIOM =  18850.6
  HRU      59 SUB   8 IRRU  Yld =  6977.3 BIOM =  20020.0
  HRU      60 SUB   8 AGRL  Yld =  6833.2 BIOM =  19596.7
  HRU      61 SUB   8 FRSE  Yld =  6314.0 BIOM =  21833.7
  HRU      62 SUB   8 RNGE  Yld =  9785.6 BIOM =  14019.8
  HRU      63 SUB   8 BARR  Yld =     0.0 BIOM =      0.5
  HRU      64 SUB   8 WETL  Yld =    21.7 BIOM =  64644.1
  HRU      65 SUB   9 IRRC  Yld =  8051.0 BIOM =  20869.7
  HRU      66 SUB   9 RICE  Yld =  7237.1 BIOM =  18686.8
  HRU      67 SUB   9 IRRU  Yld =  6949.5 BIOM =  19958.3
  HRU      68 SUB   9 AGRL  Yld =  6948.5 BIOM =  19922.3
  HRU      69 SUB   9 FRSE  Yld =  6263.7 BIOM =  21660.4
  HRU      70 SUB   9 RNGE  Yld =  9981.9 BIOM =  14297.8
  HRU      71 SUB   9 BARR  Yld =     0.0 BIOM =      0.5
  HRU      72 SUB   9 WETL  Yld =  2109.9 BIOM =  67049.5
  HRU      73 SUB  10 IRRC  Yld =  8784.9 BIOM =  22735.6
  HRU      74 SUB  10 RICE  Yld =  7874.0 BIOM =  20332.8
  HRU      75 SUB  10 IRRU  Yld =  7398.6 BIOM =  21226.5
  HRU      76 SUB  10 AGRL  Yld =  7124.2 BIOM =  20418.7
  HRU      77 SUB  10 FRSE  Yld =  6083.1 BIOM =  21024.1
  HRU      78 SUB  10 RNGE  Yld =  8054.4 BIOM =  14251.9
  HRU      79 SUB  10 BARR  Yld =     0.0 BIOM =      0.6
  HRU      80 SUB  10 WETL  Yld =    21.3 BIOM =  64166.6
  HRU      81 SUB  11 IRRC  Yld =  7472.8 BIOM =  19395.2
  HRU      82 SUB  11 RICE  Yld =  6863.5 BIOM =  17741.0
  HRU      83 SUB  11 IRRU  Yld =  6167.7 BIOM =  17744.9
  HRU      84 SUB  11 AGRL  Yld =  6678.6 BIOM =  19157.1
  HRU      85 SUB  11 FRSE  Yld =  6250.9 BIOM =  21585.0
  HRU      86 SUB  11 RNGE  Yld =  8875.3 BIOM =  12717.3
  HRU      87 SUB  11 BARR  Yld =     0.0 BIOM =      0.4
  HRU      88 SUB  11 WETL  Yld = 37912.0 BIOM =  63664.4
  HRU      89 SUB  12 IRRC  Yld =  6126.9 BIOM =  16014.5
  HRU      90 SUB  12 RICE  Yld =  6391.2 BIOM =  16517.2
  HRU      91 SUB  12 IRRU  Yld =  4367.7 BIOM =  12723.0
  HRU      92 SUB  12 AGRL  Yld =  6305.6 BIOM =  18093.2
  HRU      93 SUB  12 FRSE  Yld =  5557.0 BIOM =  19163.9
  HRU      94 SUB  12 RNGE  Yld =  6250.2 BIOM =   8959.8
  HRU      95 SUB  12 BARR  Yld =     0.0 BIOM =      0.3
  HRU      96 SUB  12 WETL  Yld = 35998.7 BIOM =  51572.0
  HRU      97 SUB  13 IRRC  Yld =  8223.0 BIOM =  21301.3
  HRU      98 SUB  13 RICE  Yld =  6172.4 BIOM =  15943.8
  HRU      99 SUB  13 IRRU  Yld =  6644.4 BIOM =  19095.4
  HRU     100 SUB  13 AGRL  Yld =  6049.9 BIOM =  17360.9
  HRU     101 SUB  13 FRSE  Yld =  6364.8 BIOM =  21987.4
  HRU     102 SUB  13 RNGE  Yld =  9447.0 BIOM =  13540.9
  HRU     103 SUB  13 BARR  Yld =     0.0 BIOM =      0.5
  HRU     104 SUB  13 WETL  Yld = 15550.7 BIOM =  63210.2
  HRU     105 SUB  14 IRRC  Yld =  6769.6 BIOM =  17560.4
  HRU     106 SUB  14 RICE  Yld =  6597.4 BIOM =  17055.1
  HRU     107 SUB  14 IRRU  Yld =  5687.7 BIOM =  16597.4
  HRU     108 SUB  14 AGRL  Yld =  6448.8 BIOM =  18497.5
  HRU     109 SUB  14 FRSE  Yld =  6381.8 BIOM =  22061.7
  HRU     110 SUB  14 RNGE  Yld =  9162.6 BIOM =  13130.8
  HRU     111 SUB  14 BARR  Yld =     0.0 BIOM =      0.4
  HRU     112 SUB  14 WETL  Yld = 32142.7 BIOM =  64396.2
  HRU     113 SUB  15 IRRC  Yld =  6603.1 BIOM =  17129.0
  HRU     114 SUB  15 RICE  Yld =  6640.2 BIOM =  17161.3
  HRU     115 SUB  15 IRRU  Yld =  5488.2 BIOM =  15970.2
  HRU     116 SUB  15 AGRL  Yld =  6429.9 BIOM =  18444.8
  HRU     117 SUB  15 FRSE  Yld =  6401.7 BIOM =  22138.4
  HRU     118 SUB  15 RNGE  Yld =  9217.9 BIOM =  13209.1
  HRU     119 SUB  15 BARR  Yld =     0.0 BIOM =      0.4
  HRU     120 SUB  15 WETL  Yld = 32731.9 BIOM =  65541.7
  HRU     121 SUB  16 IRRC  Yld =  7341.4 BIOM =  19050.0
  HRU     122 SUB  16 RICE  Yld =  6530.9 BIOM =  16885.1
  HRU     123 SUB  16 IRRU  Yld =  6086.5 BIOM =  17563.5
  HRU     124 SUB  16 AGRL  Yld =  6245.1 BIOM =  17914.1
  HRU     125 SUB  16 FRSE  Yld =  5854.9 BIOM =  20241.2
  HRU     126 SUB  16 RNGE  Yld =  9162.0 BIOM =  13127.3
  HRU     127 SUB  16 BARR  Yld =     0.0 BIOM =      0.5
  HRU     128 SUB  16 WETL  Yld = 28160.8 BIOM =  64673.9
  HRU     129 SUB  17 IRRC  Yld =  7239.6 BIOM =  18764.1
  HRU     130 SUB  17 RICE  Yld =  6337.8 BIOM =  16367.7
  HRU     131 SUB  17 IRRU  Yld =  6189.7 BIOM =  17797.9
  HRU     132 SUB  17 AGRL  Yld =  6219.3 BIOM =  17832.0
  HRU     133 SUB  17 FRSE  Yld =  6833.3 BIOM =  23628.2
  HRU     134 SUB  17 RNGE  Yld =  9548.6 BIOM =  13683.5
  HRU     135 SUB  17 BARR  Yld =     0.0 BIOM =      0.5
  HRU     136 SUB  17 WETL  Yld = 35124.4 BIOM =  65611.9
  HRU     137 SUB  18 IRRC  Yld =  6409.2 BIOM =  16629.8
  HRU     138 SUB  18 RICE  Yld =  6458.4 BIOM =  16706.7
  HRU     139 SUB  18 IRRU  Yld =  5054.7 BIOM =  14540.7
  HRU     140 SUB  18 AGRL  Yld =  6213.0 BIOM =  17828.2
  HRU     141 SUB  18 FRSE  Yld =  6557.3 BIOM =  22621.6
  HRU     142 SUB  18 RNGE  Yld =  8174.9 BIOM =  11719.4
  HRU     143 SUB  18 BARR  Yld =     0.0 BIOM =      0.4
  HRU     144 SUB  18 WETL  Yld = 43804.0 BIOM =  62732.1
  HRU     145 SUB  19 IRRC  Yld =  4799.2 BIOM =  12464.3
  HRU     146 SUB  19 RICE  Yld =  5954.4 BIOM =  15394.1
  HRU     147 SUB  19 IRRU  Yld =  3484.5 BIOM =  10124.7
  HRU     148 SUB  19 AGRL  Yld =  5566.6 BIOM =  15974.1
  HRU     149 SUB  19 FRSE  Yld =  5942.8 BIOM =  20506.5
  HRU     150 SUB  19 RNGE  Yld =  5449.7 BIOM =   7808.7
  HRU     151 SUB  19 BARR  Yld =     0.0 BIOM =      0.3
  HRU     152 SUB  19 WETL  Yld = 33256.4 BIOM =  47655.1
  HRU     153 SUB  20 IRRC  Yld =  8759.3 BIOM =  22707.2
  HRU     154 SUB  20 RICE  Yld =  6982.7 BIOM =  18051.2
  HRU     155 SUB  20 IRRU  Yld =  7408.3 BIOM =  21391.4
  HRU     156 SUB  20 AGRL  Yld =  7012.6 BIOM =  20130.8
  HRU     157 SUB  20 FRSE  Yld =  7236.8 BIOM =  25010.4
  HRU     158 SUB  20 RNGE  Yld = 11041.5 BIOM =  15818.6
  HRU     159 SUB  20 BARR  Yld =     0.0 BIOM =      0.5
  HRU     160 SUB  20 WETL  Yld = 50641.8 BIOM =  72538.1
  HRU     161 SUB  21 IRRC  Yld =  7468.7 BIOM =  19411.0
  HRU     162 SUB  21 RICE  Yld =  7050.4 BIOM =  18217.1
  HRU     163 SUB  21 IRRU  Yld =  6399.9 BIOM =  18423.5
  HRU     164 SUB  21 AGRL  Yld =  7036.3 BIOM =  20177.7
  HRU     165 SUB  21 FRSE  Yld =  7231.2 BIOM =  25037.4
  HRU     166 SUB  21 RNGE  Yld = 10583.9 BIOM =  15168.1
  HRU     167 SUB  21 BARR  Yld =     0.0 BIOM =      0.5
  HRU     168 SUB  21 WETL  Yld = 50721.7 BIOM =  72635.8
[...]
    300  38   Af60-1-2   .516E+01   83.00  160.00    0.14    0.00    0.00    0.00    0.20 2785.11  999.31  811.56  895.34   15.74    0.13   23.11   15.98    5.57  999.31
    301  38   Ge56-3a-   .400E+03   70.00   10.00    0.12    0.00    0.00    0.00    0.20 2785.11  733.90 1102.15  852.66    0.02    0.02    0.18   18.25   12.77  733.90
    302  38   Af60-1-2   .420E-06   79.00  160.00    0.16    0.00    0.00    0.00    0.20 2785.11  760.69  943.92  994.28    0.01    0.03    0.00    7.28    5.08  760.69
    303  38   Af60-1-2   .420E-06   91.00  160.00    0.15    0.00    0.00    0.00    0.20 2785.11 1573.72  284.39  877.51    0.44    0.58    1.94    0.00    0.00 1573.72
    304  38   Af60-1-2   .420E-06   79.00  160.00    0.15    0.00    0.00    0.00    0.20 2785.11  742.21 1003.63  949.42    0.01    0.03    0.00   46.07   32.16  742.21
    305  39   Ao90-2-3   .834E-08   84.00   70.00    0.10********    0.00    0.00    0.20 2959.25 1190.82********  811.18    0.31    0.15    0.00   13.77    5.29 1190.82
    306  39   Ao90-2-3   .834E-08   84.00   70.00    0.15    0.00    0.00    0.00    0.20 2959.25 1186.01  952.72  733.85    0.35    0.34    0.00   15.15    5.86 1186.01
    307  39   Ao90-2-3   .834E-08   87.00   70.00    0.14********    0.00    0.00    0.20 2959.25 1394.88********  877.04    0.34    0.24    0.00   11.45    3.94 1394.88
    308  39   Ao90-2-3   .834E-08   87.00   70.00    0.14    0.00    0.00    0.00    0.20 2959.25 1389.83  744.12  750.17    0.34    0.61    0.00   15.75    5.49 1389.83
    309  39   Ao90-2-3   .834E+01   77.00   70.00    0.15    0.00    0.00    0.00    0.20 2959.25  755.27 1051.88 1059.94    0.04    0.03    0.37   20.85   13.88  755.27
    310  39   Ao90-2-3   .834E-08   84.00   70.00    0.12    0.00    0.00    0.00    0.20 2959.25 1148.18  923.40  802.66    0.33    0.11    0.00    6.43    4.49 1148.18
    311  39   Ao90-2-3   .834E-08   94.00   70.00    0.21    0.00    0.00    0.00    0.20 2959.25 2034.86  193.76  685.83    0.37    1.92    0.00    0.00    0.00 2034.86
    312  39   Ao90-2-3   .834E-08   84.00   70.00    0.13    0.00    0.00    0.00    0.20 2959.25 1130.95  918.40  824.82    0.41    0.10    0.00   40.95   28.57 1130.95
    313  40   Ao90-2-3   .795E+01   84.00   70.00    0.15********    0.00    0.00    0.20 2573.65  986.90********  809.92    6.43    0.13   24.25   13.39    5.13  986.90
    314  40   Ao90-2-3   .425E+03   84.00   70.00    0.15    0.00    0.00    0.00    0.20 2573.65  986.50  775.63  734.17    8.15    0.23   27.63   15.40    5.95  986.50
    315  40   Ao90-2-3   .169E+01   87.00   70.00    0.15********    0.00    0.00    0.20 2573.65 1162.65********  874.91   22.32    0.19   34.48   10.93    3.76 1162.65
    316  40   Ao90-2-3   .181E+03   87.00   70.00    0.14    0.00    0.00    0.00    0.20 2573.65 1159.79  596.43  749.91   22.12    0.38   34.95   15.92    5.55 1159.79
    317  40   Ao90-2-3   .159E+05   77.00   70.00    0.14    0.00    0.00    0.00    0.20 2573.65  616.70  809.51 1067.81    0.01    0.02    0.10   21.10   14.77  616.50
    318  40   Ao90-2-3   .844E+02   84.00   70.00    0.14    0.00    0.00    0.00    0.20 2573.65  945.06  750.85  801.74    3.82    0.10   19.40    6.03    4.20  945.06
    319  40   Ao90-2-3   .166E-04   94.00   70.00    0.15    0.00    0.00    0.00    0.20 2573.65 1722.30  132.75  676.27   24.01    1.71   34.43    0.00    0.00 1722.30
    320  40   Ao90-2-3   .166E-04   84.00   70.00    0.15    0.00    0.00    0.00    0.20 2573.65  929.19  746.01  822.46    0.00    0.10    0.00   39.62   27.64  929.19
    321  41   Ag16-2a-   .186E+02   84.00  180.00    0.16********    0.00    0.00    0.20 2547.25  798.32******** 1073.23    6.63    0.04   20.13   14.18    5.46  798.32
    322  41   Ag16-2a-   .222E+03   84.00  180.00    0.16    0.00    0.00    0.00    0.20 2547.25  805.45  716.60  948.98   12.21    0.07   23.83   16.46    6.36  805.45
    323  41   Ag16-2a-   .152E+02   87.00  180.00    0.16********    0.00    0.00    0.20 2547.25  979.24******** 1118.45   27.69    0.07   29.94   11.51    3.99  979.24
    324  41   Ag16-2a-   .438E+03   87.00  180.00    0.16    0.00    0.00    0.00    0.20 2547.25  981.09  553.30  945.74   31.73    0.12   30.83   16.82    5.86  981.09
    325  41   Ag16-2a-   .555E+04   77.00  180.00    0.16    0.00    0.00    0.00    0.20 2547.25  441.38  787.52 1238.03    0.04    0.01    0.36   24.00   16.80  441.38
    326  41   Ag16-2a-   .278E+02   84.00  180.00    0.16    0.00    0.00    0.00    0.20 2547.25  742.47  654.05 1078.09    4.23    0.05   15.97    6.68    4.66  742.47
    327  41   Ag16-2a-   .628E-05   94.00  180.00    0.16    0.00    0.00    0.00    0.20 2547.25 1573.81   31.17  904.20   17.46    0.98   27.09    0.00    0.00 1573.81
    328  41   Ag16-2a-   .628E-05   84.00  180.00    0.16    0.00    0.00    0.00    0.20 2547.25  721.38  734.19 1014.31    0.00    0.05    0.00   43.79   30.56  721.38
    329  42   Vp64-3a-   .138E+03   81.00  110.00    0.13********    0.00    0.00    0.20 2676.94  702.75********  952.72    2.35    0.02    7.11   13.17    5.06  702.75
    330  42   Vp64-3a-   .633E+03   81.00  110.00    0.13    0.00    0.00    0.00    0.20 2676.94  701.14 1003.04  882.93    2.33    0.04    7.13   15.92    6.16  701.14
    331  42   Vp64-3a-   .553E+01   83.00  110.00    0.13********    0.00    0.00    0.20 2676.94  789.47******** 1002.67   10.17    0.04   12.85   10.76    3.69  789.47
    332  42   Vp64-3a-   .541E+03   83.00  110.00    0.13    0.00    0.00    0.00    0.20 2676.94  799.86  891.19  902.19    6.22    0.06   11.75   16.03    5.58  799.86
    333  42   Vp64-3a-   .198E+04   70.00  110.00    0.13    0.00    0.00    0.00    0.20 2676.94  300.37 1086.11 1195.95    0.00    0.00    0.02   23.69   16.58  300.37
    334  42   Vp64-3a-   .289E+03   79.00  110.00    0.13    0.00    0.00    0.00    0.20 2676.94  584.36 1027.26  974.20    1.06    0.02    4.14    6.56    4.58  584.36
    335  42   Vp64-3a-   .358E-05   91.00  110.00    0.13    0.00    0.00    0.00    0.20 2676.94 1376.72  376.47  868.39    4.05    0.28    7.90    0.00    0.00 1376.72
    336  42   Vp64-3a-   .358E-05   79.00  110.00    0.13    0.00    0.00    0.00    0.20 2676.94  567.62 1046.52  970.14    0.00    0.02    0.00   43.18   30.13  567.62
    337  43   Af60-1-2   .200E+04   81.00  160.00    0.18    0.00    0.00    0.00    0.20 3269.59  985.26 1160.35 1026.46    5.90    0.04   18.10   13.39    5.16  985.26
    338  43   Af60-1-2   .758E+04   81.00  160.00    0.17    0.00    0.00    0.00    0.20 3269.59 1014.05 1184.96  971.58    4.77    0.05   16.30   16.23    6.28 1014.05
    339  43   Af60-1-2   .103E+03   83.00  160.00    0.1813544.63    0.00    0.00    0.20 3269.59 1111.8912344.65 1074.44   32.75    0.04   25.79   11.24    3.91 1111.89
    340  43   Af60-1-2   .327E+04   83.00  160.00    0.17    0.00    0.00    0.00    0.20 3269.59 1144.66 1052.32  981.09   17.26    0.08   24.42   15.88    5.53 1144.66
    341  43   Af60-1-2   .457E+05   70.00  160.00    0.18    0.00    0.00    0.00    0.20 3269.59  473.81 1474.37 1204.93    0.01    0.01    0.06   24.82   17.38  473.53
    342  43   Af60-1-2   .215E+04   79.00  160.00    0.17    0.00    0.00    0.00    0.20 3269.59  877.67 1229.89 1060.45    2.41    0.04   11.46    7.35    5.12  877.67
    343  43   Af60-1-2   .125E+01   91.00  160.00    0.18    0.00    0.00    0.00    0.20 3269.59 1845.14  395.76  974.26  105.00    0.24   27.66    0.00    0.00 1845.14
    344  43   Af60-1-2   .608E-04   79.00  160.00    0.18    0.00    0.00    0.00    0.20 3269.59  871.22 1293.01  999.92    0.00    0.05    0.01   45.93   32.06  871.22
    345  44   Ag16-2a-   .101E+03   84.00  180.00    0.1397551.52    0.00    0.00    0.20 2487.05  778.9079202.95 1023.91    4.65    0.04   17.51   14.24    5.48  778.90
    346  44   Ag16-2a-   .114E+04   84.00  180.00    0.13    0.00    0.00    0.00    0.20 2487.05  810.67  661.83  943.74    7.10    0.06   22.13   15.79    6.10  810.67
    347  44   Ag16-2a-   .217E+01   87.00  180.00    0.13********    0.00    0.00    0.20 2487.05  975.11******** 1078.98   14.50    0.07   26.99   11.75    4.08  975.11
    348  44   Ag16-2a-   .421E+03   87.00  180.00    0.13    0.00    0.00    0.00    0.20 2487.05  979.92  499.13  946.27   21.87    0.12   29.62   15.35    5.34  979.92
    349  44   Ag16-2a-   .198E+05   77.00  180.00    0.14    0.00    0.00    0.00    0.20 2487.05  466.00  745.05 1199.71    0.01    0.01    0.12   24.26   16.99  465.99
    350  44   Ag16-2a-   .407E+03   84.00  180.00    0.14    0.00    0.00    0.00    0.20 2487.05  769.57  612.06 1037.49    2.51    0.05   12.72    7.49    5.22  769.57
    351  44   Ag16-2a-   .219E-04   94.00  180.00    0.13    0.00    0.00    0.00    0.20 2487.05 1540.76   12.86  898.67   17.10    0.87   28.11    0.00    0.00 1540.75
    352  44   Ag16-2a-   .219E-04   84.00  180.00    0.13    0.00    0.00    0.00    0.20 2487.05  748.89  684.49  981.39    0.00    0.06    0.00   46.12   32.20  748.89
    353  45   Af60-1-2   .381E+03   81.00  160.00    0.1185584.19    0.00    0.00    0.20 2319.87  580.3272088.52  971.08    2.40    0.03   11.20   13.92    5.36  580.31
    354  45   Af60-1-2   .976E+03   81.00  160.00    0.10    0.00    0.00    0.00    0.20 2319.87  596.39  760.60  886.45    1.63    0.06    8.67   16.76    6.48  596.37
    355  45   Af60-1-2   .761E+01   83.00  160.00    0.10********    0.00    0.00    0.20 2319.87  678.69******** 1022.22    7.52    0.05   18.54   11.36    3.94  678.69
    356  45   Af60-1-2   .407E+03   83.00  160.00    0.10    0.00    0.00    0.00    0.20 2319.87  681.35  670.81  896.36    6.33    0.09   18.69   16.09    5.60  681.33
    357  45   Af60-1-2   .176E+04   70.00  160.00    0.10    0.00    0.00    0.00    0.20 2319.87  255.14  829.14 1154.08    0.01    0.01    0.05   24.25   16.98  255.14
    358  45   Af60-1-2   .155E+04   79.00  160.00    0.10    0.00    0.00    0.00    0.20 2319.87  494.16  764.22  984.69    0.90    0.03    5.53    7.12    4.97  494.15
    359  45   Ag16-2a-   .508E-05   94.00  180.00    0.11    0.00    0.00    0.00    0.20 2319.87 1405.80   17.92  862.19    5.39    0.94   18.18    0.00    0.00 1405.78
    360  45   Ag16-2a-   .508E-05   84.00  180.00    0.10    0.00    0.00    0.00    0.20 2319.87  646.24  654.47  948.60    0.00    0.07    0.00   46.62   32.55  646.24
    361  46   Ge56-3a-   .374E+03   81.00   10.00    0.08********    0.00    0.00    0.20 2346.14  794.42********  651.40    2.20    0.57   15.71   11.58    4.44  794.42
    362  46   Ge56-3a-   .171E+04   81.00   10.00    0.09    0.00    0.00    0.00    0.20 2346.14  776.38  920.14  563.34    1.12    0.59    9.71   16.08    6.21  776.37
    363  46   Ge56-3a-   .325E+01   83.00   10.00    0.08********    0.00    0.00    0.20 2346.14  876.63********  736.79    7.16    0.63   26.57    9.06    3.13  876.63
    364  46   Ge56-3a-   .251E+03   83.00   10.00    0.09    0.00    0.00    0.00    0.20 2346.14  838.10  835.16  591.35    5.84    0.65   25.26   15.85    5.52  838.10
    365  46   Ge56-3a-   .975E+02   70.00   10.00    0.09    0.00    0.00    0.00    0.20 2346.14  394.63  966.71  895.78    0.01    0.03    0.16   20.30   14.21  394.63
    366  46   Ge56-3a-   .135E+04   79.00   10.00    0.08    0.00    0.00    0.00    0.20 2346.14  685.55  949.89  622.69    1.47    0.31   11.86    3.98    2.78  685.54
    367  46   Ge56-3a-   .379E-05   91.00   10.00    0.08    0.00    0.00    0.00    0.20 2346.14 1240.23  495.59  548.27    1.23    2.66    8.77    0.00    0.00 1240.22
    368  46   Ge56-3a-   .379E-05   79.00   10.00    0.08    0.00    0.00    0.00    0.20 2346.14  672.50  938.09  647.98    0.00    0.24    0.00   30.02   20.95  672.50
    369  47   Ge56-3a-   .119E+05   81.00   10.00    0.09********    0.00    0.00    0.20 2363.68  801.68********  646.14    1.02    0.56    9.18   11.77    4.52  801.43
    370  47   Ge56-3a-   .328E+04   81.00   10.00    0.09    0.00    0.00    0.00    0.20 2363.68  780.28  944.94  551.09    1.33    0.57   11.07   16.67    6.44  780.27
    371  47   Ge56-3a-   .132E+04   83.00   10.00    0.09********    0.00    0.00    0.20 2363.68  899.01********  732.95    6.63    0.62   26.63    9.75    3.37  899.01
    372  47   Ge56-3a-   .635E+03   83.00   10.00    0.09    0.00    0.00    0.00    0.20 2363.68  844.72  859.56  576.78    6.17    0.54   25.62   16.73    5.83  844.72
    373  47   Ge56-3a-   .117E-11   70.00   10.00    0.09    0.00    0.00    0.00    0.20 2363.68  387.43 1007.59  877.64 2350.82    0.03    0.00   20.88   14.61  387.43
    374  47   Ge56-3a-   .490E-12   79.00   10.00    0.09    0.00    0.00    0.00    0.20 2363.68  689.06  977.36  608.01 4979.89    0.32    0.00    4.63    3.23  689.06
    375  47   Ge56-3a-   .171E-04   91.00   10.00    0.09    0.00    0.00    0.00    0.20 2363.68 1255.79  506.43  539.03    5.77    2.56   23.06    0.00    0.00 1255.78
    376  47   Ge56-3a-   .171E-04   79.00   10.00    0.09    0.00    0.00    0.00    0.20 2363.68  674.69  967.92  632.09    0.00    0.22    0.02   33.54   23.41  674.69



                AVE MONTHLY BASIN VALUES
                   SNOW                      WATER               SED
  MON     RAIN     FALL   SURF Q    LAT Q    YIELD       ET    YIELD      PET
          (MM)     (MM)     (MM)     (MM)     (MM)     (MM)   (T/HA)     (MM)
    1    12.52     1.82     0.58     1.08   304.20    15.48     0.16   103.41
    2    22.17     2.83     2.51     1.89  2884.67    21.16     0.24   115.01
    3    50.11     3.91     5.04    10.76  9736.34    59.07     1.27   156.97
    4   138.96     4.90    24.70    16.11 10011.85    90.33     4.47   157.70
    5   327.65     2.67    92.63    15.37  6600.60   119.59     4.37   145.94
    6   325.63     0.21    96.60    11.12  3360.62   106.54     2.00   121.45
    7   355.78     0.00    93.27     7.84  1723.04   117.03     2.49   126.72
    8   379.88     0.01   109.25     5.45   912.06   109.80     2.02   121.73
    9   329.39     0.59    90.01     3.75   542.71   101.67     1.29   114.98
   10   218.99     4.37    55.69     2.75   369.21    84.67     1.64   108.21
   11    88.37     2.28    13.18     1.86   220.04    53.97     0.60    94.64
   12    27.16     1.69     1.79     1.34   129.90    30.03     0.10    90.92

     AVE ANNUAL BASIN STRESS DAYS
               WATER STRESS DAYS =     9.86
               TEMPERATURE STRESS DAYS =    24.77
               NITROGEN STRESS DAYS =     0.00
               PHOSPHORUS STRESS DAYS =     0.00
               AERATION STRESS DAYS =     0.00
1
    SWAT May 6 2015    VER 2015/Rev 637                                             

    General Input/Output section (file.cio):                                        
    11/6/2015 12:00:00 AM ARCGIS-SWAT interface AV                                  
                                                                                    
         AVE ANNUAL BASIN VALUES

              PRECIP =   2276.8 MM
              SNOW FALL =   25.31 MM
              SNOW MELT =    24.59 MM
              SUBLIMATION =     0.61 MM
              SURFACE RUNOFF Q =   585.26 MM
              LATERAL SOIL Q =   79.33 MM
              TILE Q =     0.00 MM
              GROUNDWATER (SHAL AQ) Q = 34355.84 MM
              GROUNDWATER (DEEP AQ) Q =  1802.97 MM
              REVAP (SHAL AQ => SOIL/PLANTS) =   29.18 MM
              DEEP AQ RECHARGE =  1809.76 MM
              TOTAL AQ RECHARGE =36195.23 MM
              TOTAL WATER YLD = 36823.34 MM
              PERCOLATION OUT OF SOIL =36196.20 MM
              ET =    909.5 MM
              PET =   1458.8MM
              TRANSMISSION LOSSES =     0.00 MM
              SEPTIC INFLOW =       0.00 MM
              TOTAL SEDIMENT LOADING =    20.644 T/HA
              TILE FROM IMPOUNDED WATER =     0.000 (MM)
              EVAPORATION FROM IMPOUNDED WATER =     0.000 (MM)
              SEEPAGE INTO SOIL FROM IMPOUNDED WATER =    0.000 (MM)
              OVERFLOW FROM IMPOUNDED WATER =    0.000 (MM)
1
    SWAT May 6 2015    VER 2015/Rev 637                                             

    General Input/Output section (file.cio):                                        
    11/6/2015 12:00:00 AM ARCGIS-SWAT interface AV                                  
                                                                                    
              AVE ANNUAL BASIN VALUES


              NUTRIENTS
                   ORGANIC N =     6.501 (KG/HA)
                   ORGANIC P =     1.305 (KG/HA)
                   NO3 YIELD (SQ) =     0.067 (KG/HA)
                   NO3 YIELD (LAT) =    0.004 (KG/HA)
                   NO3 YIELD (TILE) =    0.000 (KG/HA)
                   SOLP YIELD (TILE) =    0.000(KG/HA)
                   SOLP YIELD (SURF INLET RISER) =    0.000 (KG/HA)
                   SOL P YIELD =    0.278 (KG/HA)
                   NO3 LEACHED =     3.107 (KG/HA)
                   P LEACHED =     0.974 (KG/HA)
                   N UPTAKE =    15.234 (KG/HA)
                   P UPTAKE =   14.901 (KG/HA)
                   NO3 YIELD (GWQ) =     0.083 (KG/HA)
                   ACTIVE TO SOLUTION P FLOW =        -6.634 (KG/HA)
                   ACTIVE TO STABLE P FLOW =        -4.453 (KG/HA)
                   N FERTILIZER APPLIED =     0.000 (KG/HA)
                   P FERTILIZER APPLIED =     0.000 (KG/HA)
                   N FIXATION =     0.000 (KG/HA)
                   DENITRIFICATION =     0.281 (KG/HA)
                   HUMUS MIN ON ACTIVE ORG N =    11.001 (KG/HA)
                   ACTIVE TO STABLE ORG N =    -7.212 (KG/HA)
                   HUMUS MIN ON ACTIVE ORG P =    1.907 (KG/HA)
                   MIN FROM FRESH ORG N =    7.037 (KG/HA)
                   MIN FROM FRESH ORG P =    9.019 (KG/HA)
                   NO3 IN RAINFALL =     0.000 (KG/HA)
                   INITIAL NO3 IN SOIL =      44.760 (KG/HA)
                   FINAL NO3 IN SOIL =         1.892 (KG/HA)
                   INITIAL ORG N IN SOIL =   10175.262 (KG/HA)
                   FINAL ORG N IN SOIL =      9828.990 (KG/HA)
                   INITIAL MIN P IN SOIL =    2223.295 (KG/HA)
                   FINAL MIN P IN SOIL =      2033.235 (KG/HA)
                   INITIAL ORG P IN SOIL =    1246.470 (KG/HA)
                   FINAL ORG P IN SOIL =    1237.802 (KG/HA)
                   NO3 IN FERT =     0.000 (KG/HA)
                   AMMONIA IN FERT =     0.000 (KG/HA)
                   ORG N IN FERT =     0.000 (KG/HA)
                   MINERAL P IN FERT =     0.000 (KG/HA)
                   ORG P IN FERT =     0.000 (KG/HA)
                   N REMOVED IN YIELD =     7.722 (KG/HA)
                   P REMOVED IN YIELD =     4.819 (KG/HA)
                   AMMONIA VOLATILIZATION =     0.000 (KG/HA)
                   AMMONIA NITRIFICATION =      0.000 (KG/HA)
                   NO3 EVAP-LAYER 2 TO 1 =    3.788

                   DIE-GRO P Q =       0.0 (No/HA)
                   DIE-GRO LP Q =       0.0 (No/HA)
                   DIE-GRO P SED =      0.0 (No/HA)
                   DIE-GRO LP SED =      0.0 (No/HA)
                   BACT P RUNOFF =      0.0 (No/HA)
                   BACT LP RUNOFF =      0.0 (No/HA)
                   BACT P SEDIMENT =      0.0 (No/HA)
                   BACT LP SEDIMENT =      0.0 (No/HA)
                   BACT P INCORP =      0.0 (No/HA)
                   BACT LP INCORP =      0.0 (No/HA)

                   NITRATE SEPTIC =         0.00 (kg/ha)
                   AMMONIA SEPTIC =         0.00 (kg/ha)
                   ORG N SEPTIC =         0.00 (kg/ha)
                   FRESH ORGN SEPTIC =         0.00 (kg/ha)
                   ORG P SEPTIC =         0.00 (kg/ha)
                   FRESH ORGP SEPTIC =         0.00 (kg/ha)
                   SOL P SEPTIC =         0.00 (kg/ha)
                   BOD SEPTIC =         0.00 (kg/ha)
