1
    SWAT May 6 2015    VER 2015/Rev 637                                                                  0/ 0/   0      0: 0: 0

    General Input/Output section (file.cio):                                        
    11/6/2015 12:00:00 AM ARCGIS-SWAT interface AV                                  
                                                                                    


LULC  HRU       GIS  SUB  MGT  MON   AREAkm2  PRECIPmm
IRRC    1 000010001    1    0    1.17181E-04    21.515
IRRC    1 000010001    1    0    2.17181E-04    34.478
IRRC    1 000010001    1    0    3.17181E-04    65.337
IRRC    1 000010001    1    0    4.17181E-04    55.373
IRRC    1 000010001    1    0    5.17181E-04    80.492
IRRC    1 000010001    1    0    6.17181E-04   130.925
IRRC    1 000010001    1    0    7.17181E-04   220.314
IRRC    1 000010001    1    0    8.17181E-04   112.511
IRRC    1 000010001    1    0    9.17181E-04   109.232
IRRC    1 000010001    1    0   10.17181E-04    60.683
IRRC    1 000010001    1    0   11.17181E-04    38.349
IRRC    1 000010001    1    0   12.17181E-04    38.544
IRRC    1 000010001    1    0 1988.17181E-04   967.753
IRRC    1 000010001    1    0    1.17181E-04    30.950
IRRC    1 000010001    1    0    2.17181E-04    51.222
IRRC    1 000010001    1    0    3.17181E-04    30.949
IRRC    1 000010001    1    0    4.17181E-04    45.666
IRRC    1 000010001    1    0    5.17181E-04   104.539
IRRC    1 000010001    1    0    6.17181E-04   194.362
IRRC    1 000010001    1    0    7.17181E-04   143.482
IRRC    1 000010001    1    0    8.17181E-04   140.669
IRRC    1 000010001    1    0    9.17181E-04   119.730
IRRC    1 000010001    1    0   10.17181E-04   121.972
IRRC    1 000010001    1    0   11.17181E-04    21.939
IRRC    1 000010001    1    0   12.17181E-04    20.059
IRRC    1 000010001    1    0 1989.17181E-04  1025.538
IRRC    1 000010001    1    0    1.17181E-04    14.672
IRRC    1 000010001    1    0    2.17181E-04    52.635
IRRC    1 000010001    1    0    3.17181E-04    79.679
IRRC    1 000010001    1    0    4.17181E-04   104.651
IRRC    1 000010001    1    0    5.17181E-04   111.791
IRRC    1 000010001    1    0    6.17181E-04    97.694
IRRC    1 000010001    1    0    7.17181E-04   188.679
IRRC    1 000010001    1    0    8.17181E-04   156.251
IRRC    1 000010001    1    0    9.17181E-04    88.456
IRRC    1 000010001    1    0   10.17181E-04    60.812
IRRC    1 000010001    1    0   11.17181E-04    51.134
IRRC    1 000010001    1    0   12.17181E-04    10.526
IRRC    1 000010001    1    0 1990.17181E-04  1016.981
IRRC    1 000010001    1    0    1.17181E-04    14.632
IRRC    1 000010001    1    0    2.17181E-04    39.569
IRRC    1 000010001    1    0    3.17181E-04    60.477
IRRC    1 000010001    1    0    4.17181E-04    69.506
IRRC    1 000010001    1    0    5.17181E-04    83.254
IRRC    1 000010001    1    0    6.17181E-04    96.960
IRRC    1 000010001    1    0    7.17181E-04   225.130
IRRC    1 000010001    1    0    8.17181E-04    69.481
IRRC    1 000010001    1    0    9.17181E-04   107.787
IRRC    1 000010001    1    0   10.17181E-04    75.612
IRRC    1 000010001    1    0   11.17181E-04    50.301
IRRC    1 000010001    1    0   12.17181E-04    16.754
IRRC    1 000010001    1    0 1991.17181E-04   909.463
IRRC    1 000010001    1    0    1.17181E-04    14.040
IRRC    1 000010001    1    0    2.17181E-04    57.123
IRRC    1 000010001    1    0    3.17181E-04    67.389
IRRC    1 000010001    1    0    4.17181E-04    73.668
IRRC    1 000010001    1    0    5.17181E-04   116.166
IRRC    1 000010001    1    0    6.17181E-04   144.061
IRRC    1 000010001    1    0    7.17181E-04   146.717
IRRC    1 000010001    1    0    8.17181E-04   183.870
IRRC    1 000010001    1    0    9.17181E-04   128.690
IRRC    1 000010001    1    0   10.17181E-04    36.970
IRRC    1 000010001    1    0   11.17181E-04    34.116
IRRC    1 000010001    1    0   12.17181E-04    11.881
IRRC    1 000010001    1    0 1992.17181E-04  1014.690
IRRC    1 000010001    1    0    1.17181E-04    23.280
IRRC    1 000010001    1    0    2.17181E-04    39.870
IRRC    1 000010001    1    0    3.17181E-04    50.694
IRRC    1 000010001    1    0    4.17181E-04    78.293
IRRC    1 000010001    1    0    5.17181E-04    53.197
IRRC    1 000010001    1    0    6.17181E-04    98.038
IRRC    1 000010001    1    0    7.17181E-04   133.038
IRRC    1 000010001    1    0    8.17181E-04    74.898
IRRC    1 000010001    1    0    9.17181E-04   120.199
IRRC    1 000010001    1    0   10.17181E-04    60.679
IRRC    1 000010001    1    0   11.17181E-04    43.823
IRRC    1 000010001    1    0   12.17181E-04    17.860
IRRC    1 000010001    1    0 1993.17181E-04   793.868
IRRC    1 000010001    1    0    1.17181E-04    19.675
IRRC    1 000010001    1    0    2.17181E-04    40.359
IRRC    1 000010001    1    0    3.17181E-04    38.555
IRRC    1 000010001    1    0    4.17181E-04    90.897
IRRC    1 000010001    1    0    5.17181E-04    95.385
IRRC    1 000010001    1    0    6.17181E-04    74.945
IRRC    1 000010001    1    0    7.17181E-04   115.297
IRRC    1 000010001    1    0    8.17181E-04   133.684
IRRC    1 000010001    1    0    9.17181E-04   114.754
IRRC    1 000010001    1    0   10.17181E-04   115.718
IRRC    1 000010001    1    0   11.17181E-04    38.915
IRRC    1 000010001    1    0   12.17181E-04    22.779
IRRC    1 000010001    1    0 1994.17181E-04   900.964
IRRC    1 000010001    1    0    1.17181E-04    34.584
IRRC    1 000010001    1    0    2.17181E-04    31.617
IRRC    1 000010001    1    0    3.17181E-04    47.508
IRRC    1 000010001    1    0    4.17181E-04    57.052
IRRC    1 000010001    1    0    5.17181E-04    56.117
IRRC    1 000010001    1    0    6.17181E-04   157.391
IRRC    1 000010001    1    0    7.17181E-04   140.860
IRRC    1 000010001    1    0    8.17181E-04   110.542
IRRC    1 000010001    1    0    9.17181E-04   114.266
IRRC    1 000010001    1    0   10.17181E-04   131.231
IRRC    1 000010001    1    0   11.17181E-04    31.636
IRRC    1 000010001    1    0   12.17181E-04    41.977
IRRC    1 000010001    1    0 1995.17181E-04   954.781
IRRC    1 000010001    1    0    1.17181E-04     6.864
IRRC    1 000010001    1    0    2.17181E-04    27.799
IRRC    1 000010001    1    0    3.17181E-04    77.452
IRRC    1 000010001    1    0    4.17181E-04    76.316
IRRC    1 000010001    1    0    5.17181E-04   142.072
IRRC    1 000010001    1    0    6.17181E-04    81.830
IRRC    1 000010001    1    0    7.17181E-04    85.040
IRRC    1 000010001    1    0    8.17181E-04    99.141
IRRC    1 000010001    1    0    9.17181E-04   118.444
IRRC    1 000010001    1    0   10.17181E-04   103.384
IRRC    1 000010001    1    0   11.17181E-04    29.708
IRRC    1 000010001    1    0   12.17181E-04    19.523
IRRC    1 000010001    1    0 1996.17181E-04   867.575
IRRC    1 000010001    1    0    1.17181E-04    16.525
IRRC    1 000010001    1    0    2.17181E-04    59.697
IRRC    1 000010001    1    0    3.17181E-04    77.122
IRRC    1 000010001    1    0    4.17181E-04    69.757
IRRC    1 000010001    1    0    5.17181E-04   104.488
IRRC    1 000010001    1    0    6.17181E-04   144.914
IRRC    1 000010001    1    0    7.17181E-04   115.205
IRRC    1 000010001    1    0    8.17181E-04   109.680
IRRC    1 000010001    1    0    9.17181E-04   120.226
IRRC    1 000010001    1    0   10.17181E-04    55.578
IRRC    1 000010001    1    0   11.17181E-04    51.920
IRRC    1 000010001    1    0   12.17181E-04    25.836
IRRC    1 000010001    1    0 1997.17181E-04   950.947
IRRC    1 000010001    1    0    1.17181E-04    31.882
IRRC    1 000010001    1    0    2.17181E-04    40.892
IRRC    1 000010001    1    0    3.17181E-04    25.669
IRRC    1 000010001    1    0    4.17181E-04    91.409
IRRC    1 000010001    1    0    5.17181E-04   148.941
IRRC    1 000010001    1    0    6.17181E-04   157.072
IRRC    1 000010001    1    0    7.17181E-04   164.366
IRRC    1 000010001    1    0    8.17181E-04   138.440
IRRC    1 000010001    1    0    9.17181E-04   156.457
IRRC    1 000010001    1    0   10.17181E-04   118.436
IRRC    1 000010001    1    0   11.17181E-04    39.663
IRRC    1 000010001    1    0   12.17181E-04    27.077
IRRC    1 000010001    1    0 1998.17181E-04  1140.303
IRRC    1 000010001    1    0    1.17181E-04    16.265
IRRC    1 000010001    1    0    2.17181E-04    29.954
IRRC    1 000010001    1    0    3.17181E-04    36.752
IRRC    1 000010001    1    0    4.17181E-04    89.248
IRRC    1 000010001    1    0    5.17181E-04    89.854
IRRC    1 000010001    1    0    6.17181E-04   129.171
IRRC    1 000010001    1    0    7.17181E-04   121.221
IRRC    1 000010001    1    0    8.17181E-04   122.026
IRRC    1 000010001    1    0    9.17181E-04   177.717
IRRC    1 000010001    1    0   10.17181E-04    90.626
IRRC    1 000010001    1    0   11.17181E-04    32.573
IRRC    1 000010001    1    0   12.17181E-04    22.184
IRRC    1 000010001    1    0 1999.17181E-04   957.591
IRRC    1 000010001    1    0    1.17181E-04    15.532
IRRC    1 000010001    1    0    2.17181E-04    27.650
IRRC    1 000010001    1    0    3.17181E-04    64.055
IRRC    1 000010001    1    0    4.17181E-04    55.644
IRRC    1 000010001    1    0    5.17181E-04   254.998
IRRC    1 000010001    1    0    6.17181E-04   135.699
IRRC    1 000010001    1    0    7.17181E-04    99.891
IRRC    1 000010001    1    0    8.17181E-04   121.860
IRRC    1 000010001    1    0    9.17181E-04    91.930
IRRC    1 000010001    1    0   10.17181E-04    56.664
IRRC    1 000010001    1    0   11.17181E-04     8.791
IRRC    1 000010001    1    0   12.17181E-04    16.620
IRRC    1 000010001    1    0 2000.17181E-04   949.334
IRRC    1 000010001    1    0    1.17181E-04    35.924
IRRC    1 000010001    1    0    2.17181E-04    48.299
IRRC    1 000010001    1    0    3.17181E-04    21.314
IRRC    1 000010001    1    0    4.17181E-04    93.280
IRRC    1 000010001    1    0    5.17181E-04    95.684
IRRC    1 000010001    1    0    6.17181E-04   142.498
IRRC    1 000010001    1    0    7.17181E-04   130.488
IRRC    1 000010001    1    0    8.17181E-04    98.654
IRRC    1 000010001    1    0    9.17181E-04   137.094
IRRC    1 000010001    1    0   10.17181E-04   109.173
IRRC    1 000010001    1    0   11.17181E-04    34.054
IRRC    1 000010001    1    0   12.17181E-04    15.059
IRRC    1 000010001    1    0 2001.17181E-04   961.521
IRRC    1 000010001    1    0    1.17181E-04    14.679
IRRC    1 000010001    1    0    2.17181E-04    41.123
IRRC    1 000010001    1    0    3.17181E-04    53.762
IRRC    1 000010001    1    0    4.17181E-04    82.733
IRRC    1 000010001    1    0    5.17181E-04   113.880
IRRC    1 000010001    1    0    6.17181E-04   187.121
IRRC    1 000010001    1    0    7.17181E-04   161.917
IRRC    1 000010001    1    0    8.17181E-04   170.598
IRRC    1 000010001    1    0    9.17181E-04    90.149
IRRC    1 000010001    1    0   10.17181E-04   133.343
IRRC    1 000010001    1    0   11.17181E-04    20.584
IRRC    1 000010001    1    0   12.17181E-04    35.076
IRRC    1 000010001    1    0 2002.17181E-04  1104.964
IRRC    1 000010001    1    0    1.17181E-04    16.908
IRRC    1 000010001    1    0    2.17181E-04    43.350
IRRC    1 000010001    1    0    3.17181E-04    54.877
IRRC    1 000010001    1    0    4.17181E-04   101.868
IRRC    1 000010001    1    0    5.17181E-04   114.834
IRRC    1 000010001    1    0    6.17181E-04   160.040
IRRC    1 000010001    1    0    7.17181E-04   213.764
IRRC    1 000010001    1    0    8.17181E-04   124.646
IRRC    1 000010001    1    0    9.17181E-04    99.650
IRRC    1 000010001    1    0   10.17181E-04   109.709
IRRC    1 000010001    1    0   11.17181E-04    24.670
IRRC    1 000010001    1    0   12.17181E-04    10.151
IRRC    1 000010001    1    0 2003.17181E-04  1074.468
IRRC    1 000010001    1    0    1.17181E-04    26.372
IRRC    1 000010001    1    0    2.17181E-04    35.299
IRRC    1 000010001    1    0    3.17181E-04    55.791
IRRC    1 000010001    1    0    4.17181E-04    92.011
IRRC    1 000010001    1    0    5.17181E-04   111.287
IRRC    1 000010001    1    0    6.17181E-04   131.784
IRRC    1 000010001    1    0    7.17181E-04   218.737
IRRC    1 000010001    1    0    8.17181E-04   138.477
IRRC    1 000010001    1    0    9.17181E-04   211.168
IRRC    1 000010001    1    0   10.17181E-04    90.208
IRRC    1 000010001    1    0   11.17181E-04    17.207
IRRC    1 000010001    1    0   12.17181E-04    17.788
IRRC    1 000010001    1    0 2004.17181E-04  1146.129
IRRC    1 000010001    1    0    1.17181E-04    46.198
IRRC    1 000010001    1    0    2.17181E-04    53.637
IRRC    1 000010001    1    0    3.17181E-04    89.032
IRRC    1 000010001    1    0    4.17181E-04   117.340
IRRC    1 000010001    1    0    5.17181E-04    84.967
IRRC    1 000010001    1    0    6.17181E-04   140.476
IRRC    1 000010001    1    0    7.17181E-04   213.047
IRRC    1 000010001    1    0    8.17181E-04    74.820
IRRC    1 000010001    1    0    9.17181E-04   124.497
IRRC    1 000010001    1    0   10.17181E-04    89.508
IRRC    1 000010001    1    0   11.17181E-04    41.091
IRRC    1 000010001    1    0   12.17181E-04    11.471
IRRC    1 000010001    1    0 2005.17181E-04  1086.083
IRRC    1 000010001    1    0    1.17181E-04    27.485
IRRC    1 000010001    1    0    2.17181E-04    34.692
IRRC    1 000010001    1    0    3.17181E-04    73.204
IRRC    1 000010001    1    0    4.17181E-04    69.318
IRRC    1 000010001    1    0    5.17181E-04   105.827
IRRC    1 000010001    1    0    6.17181E-04   181.644
IRRC    1 000010001    1    0    7.17181E-04   179.304
IRRC    1 000010001    1    0    8.17181E-04   163.706
IRRC    1 000010001    1    0    9.17181E-04    82.318
IRRC    1 000010001    1    0   10.17181E-04    70.797
IRRC    1 000010001    1    0   11.17181E-04    11.367
IRRC    1 000010001    1    0   12.17181E-04    12.449
IRRC    1 000010001    1    0 2006.17181E-04  1012.110
IRRC    1 000010001    1    0    1.17181E-04    32.547
IRRC    1 000010001    1    0    2.17181E-04    29.026
IRRC    1 000010001    1    0    3.17181E-04    54.521
IRRC    1 000010001    1    0    4.17181E-04    81.485
IRRC    1 000010001    1    0    5.17181E-04   103.040
IRRC    1 000010001    1    0    6.17181E-04   118.316
IRRC    1 000010001    1    0    7.17181E-04   201.696
IRRC    1 000010001    1    0    8.17181E-04    95.321
IRRC    1 000010001    1    0    9.17181E-04   100.358
IRRC    1 000010001    1    0   10.17181E-04    80.709
IRRC    1 000010001    1    0   11.17181E-04    30.358
IRRC    1 000010001    1    0   12.17181E-04    16.712
IRRC    1 000010001    1    0 2007.17181E-04   944.088
IRRC    1 000010001    1    0    1.17181E-04    29.758
IRRC    1 000010001    1    0    2.17181E-04    54.912
IRRC    1 000010001    1    0    3.17181E-04    73.443
IRRC    1 000010001    1    0    4.17181E-04    52.416
IRRC    1 000010001    1    0    5.17181E-04   110.993
IRRC    1 000010001    1    0    6.17181E-04   149.700
IRRC    1 000010001    1    0    7.17181E-04   153.920
IRRC    1 000010001    1    0    8.17181E-04   101.650
IRRC    1 000010001    1    0    9.17181E-04   140.503
IRRC    1 000010001    1    0   10.17181E-04   108.956
IRRC    1 000010001    1    0   11.17181E-04    52.451
IRRC    1 000010001    1    0   12.17181E-04    16.744
IRRC    1 000010001    1    0 2008.17181E-04  1045.448
IRRC    1 000010001    1    0    1.17181E-04    45.448
IRRC    1 000010001    1    0    2.17181E-04    31.118
IRRC    1 000010001    1    0    3.17181E-04    70.047
IRRC    1 000010001    1    0    4.17181E-04    84.996
IRRC    1 000010001    1    0    5.17181E-04   163.177
IRRC    1 000010001    1    0    6.17181E-04   160.337
IRRC    1 000010001    1    0    7.17181E-04   294.976
IRRC    1 000010001    1    0    8.17181E-04    91.803
IRRC    1 000010001    1    0    9.17181E-04    72.350
IRRC    1 000010001    1    0   10.17181E-04   125.992
IRRC    1 000010001    1    0   11.17181E-04    13.269
IRRC    1 000010001    1    0   12.17181E-04    12.800
IRRC    1 000010001    1    0 2009.17181E-04  1166.312
IRRC    1 000010001    1    0 22.0.17181E-04   999.587
