1
    SWAT May 6 2015    VER 2015/Rev 637                                                                  0/ 0/   0      0: 0: 0

    General Input/Output section (file.cio):                                        
    11/6/2015 12:00:00 AM ARCGIS-SWAT interface AV                                  
                                                                                    


       SUB      GIS  MON   AREAkm2  PRECIPmm SNOMELTmm     PETmm      ETmm      SWmm    PERCmm    SURQmm    GW_Qmm    WYLDmm  SYLDt/ha ORGNkg/ha ORGPkg/haNSURQkg/ha SOLPkg/ha SEDPkg/ha LAT Q(mm)LATNO3kg/hGWNO3kg/haCHOLAmic/LCBODU mg/L DOXQ mg/L TNO3kg/ha
BIGSUB   1        0    1.17181E+05    21.515     0.000     5.193     0.838    28.532     0.000     0.000     0.000     0.000     0.000     0.000     0.000     0.000     0.000     0.000     0.000     0.000     0.000 .00000E+00 0.000E+00 0.000E+00 0.000E+00
BIGSUB   2        0    1.37268E+05     9.472     0.000     6.845     0.389     7.107     0.000     0.000     0.000     0.000     0.000     0.000     0.000     0.000     0.000     0.000     0.000     0.000     0.000 .00000E+00 0.000E+00 0.000E+00 0.000E+00
BIGSUB   3        0    1.26352E+05    11.556     0.000    11.194     0.810    13.933     0.000     0.000     0.000     0.000     0.000     0.000     0.000     0.000     0.000     0.000     0.000     0.000     0.000 .00000E+00 0.000E+00 0.000E+00 0.000E+00
BIGSUB   4        0    1.28179E+04    47.132    38.998    36.413    23.625   156.598     0.000    11.291     0.000    11.291     4.702     6.001     0.735     0.122     0.003     1.468     0.000     0.000     0.000 .00000E+00 0.000E+00 0.000E+00 0.000E+00
BIGSUB   5        0    1.31473E+04    27.067    23.019    41.171    21.726   122.559     0.000     2.110     0.000     2.110     1.384     1.404     0.172     0.037     0.001     0.343     0.000     0.000     0.000 .00000E+00 0.000E+00 0.000E+00 0.000E+00
BIGSUB   6        0    1.21466E+05    16.790     5.609    51.060    19.462    58.201     0.000     0.002     0.000     0.005     0.000     0.001     0.000     0.000     0.000     0.000     0.003     0.000     0.000 .00000E+00 0.000E+00 0.000E+00 0.000E+00
BIGSUB   7        0    1.31060E+05    15.696     0.000    73.603    18.503    25.154     0.000     0.004     0.000     0.012     0.000     0.001     0.000     0.000     0.000     0.000     0.009     0.000     0.000 .00000E+00 0.000E+00 0.000E+00 0.000E+00
BIGSUB   8        0    1.46786E+04    31.234     0.000    78.851    33.703    64.714     0.000     0.099     0.000     0.103     0.023     0.106     0.013     0.003     0.000     0.013     0.004     0.000     0.000 .00000E+00 0.000E+00 0.000E+00 0.000E+00
BIGSUB   9        0    1.19100E+05    21.941     0.000    78.905    26.509    60.327     0.000     0.048     0.000     0.051     0.015     0.059     0.007     0.002     0.000     0.007     0.003     0.000     0.000 .00000E+00 0.000E+00 0.000E+00 0.000E+00
BIGSUB  10        0    1.15249E+05     0.600     0.000    85.089    19.815    48.255     0.000     0.000     0.000     0.000     0.000     0.000     0.000     0.000     0.000     0.000     0.000     0.000     0.000 .00000E+00 0.000E+00 0.000E+00 0.000E+00
BIGSUB  11        0    1.13782E+05    27.882     0.000    95.894    34.513    59.171     0.000     0.020     0.000     0.024     0.004     0.018     0.002     0.000     0.000     0.002     0.004     0.000     0.000 .00000E+00 0.000E+00 0.000E+00 0.000E+00
BIGSUB  12        0    1.23156E+05    20.479     0.000   107.897    31.158    55.313     0.000     0.024     0.000     0.027     0.004     0.019     0.002     0.001     0.000     0.002     0.002     0.000     0.000 .00000E+00 0.000E+00 0.000E+00 0.000E+00
BIGSUB  13        0    1.11181E+05    34.712     0.000    94.503    39.854    63.023     0.000     0.020     0.000     0.026     0.014     0.038     0.005     0.000     0.000     0.005     0.006     0.000     0.000 .00000E+00 0.000E+00 0.000E+00 0.000E+00
BIGSUB  14        0    1.68337E+04    27.572     0.000    99.201    33.762    55.905     0.000     0.004     0.000     0.009     0.001     0.004     0.001     0.000     0.000     0.001     0.005     0.000     0.000 .00000E+00 0.000E+00 0.000E+00 0.000E+00
BIGSUB  15        0    1.64465E+02    31.441     0.000    98.973    37.411    59.588     0.000     0.000     0.000     0.005     0.000     0.000     0.000     0.000     0.000     0.000     0.005     0.000     0.000 .00000E+00 0.000E+00 0.000E+00 0.000E+00
BIGSUB  16        0    1.42580E+05    30.044     0.000    91.981    33.520    56.340     0.000     0.004     0.000     0.010     0.004     0.009     0.001     0.000     0.000     0.001     0.006     0.000     0.000 .00000E+00 0.000E+00 0.000E+00 0.000E+00
BIGSUB  17        0    1.10127E+05    21.409     0.000   106.289    31.882    58.556     0.000     0.004     0.000     0.008     0.002     0.006     0.001     0.000     0.000     0.001     0.003     0.000     0.000 .00000E+00 0.000E+00 0.000E+00 0.000E+00
BIGSUB  18        0    1.19915E+04    14.330     0.000   111.127    39.042   130.617     0.000     0.000     0.000     0.004     0.000     0.000     0.000     0.000     0.000     0.000     0.004     0.000     0.000 .00000E+00 0.000E+00 0.000E+00 0.000E+00
BIGSUB  19        0    1.25128E+05    17.080     0.000   113.340    31.247    55.581     0.000     0.091     0.000     0.092     0.006     0.040     0.005     0.004     0.000     0.005     0.001     0.000     0.000 .00000E+00 0.000E+00 0.000E+00 0.000E+00
BIGSUB  20        0    1.16808E+05     4.917     0.000   105.174    23.393    51.390     0.000     0.001     0.000     0.001     0.000     0.001     0.000     0.000     0.000     0.000     0.000     0.000     0.000 .00000E+00 0.000E+00 0.000E+00 0.000E+00
BIGSUB  21        0    1.11487E+05     0.200     0.000   105.310    22.540    47.093     0.000     0.000     0.000     0.000     0.000     0.000     0.000     0.000     0.000     0.000     0.000     0.000     0.000 .00000E+00 0.000E+00 0.000E+00 0.000E+00
BIGSUB  22        0    1.55831E+05     0.200     0.000   119.747    23.696    45.076     0.000     0.000     0.000     0.000     0.000     0.000     0.000     0.000     0.000     0.000     0.000     0.000     0.000 .00000E+00 0.000E+00 0.000E+00 0.000E+00
BIGSUB  23        0    1.19942E+05     3.836     0.000   101.523    24.112    55.705     0.000     0.000     0.000     0.000     0.000     0.000     0.000     0.000     0.000     0.000     0.000     0.000     0.000 .00000E+00 0.000E+00 0.000E+00 0.000E+00
BIGSUB  24        0    1.45060E+04     0.200     0.000   117.561    24.115    46.532     0.000     0.000     0.000     0.000     0.000     0.000     0.000     0.000     0.000     0.000     0.000     0.000     0.000 .00000E+00 0.000E+00 0.000E+00 0.000E+00
BIGSUB  25        0    1.43253E+03     0.200     0.000   120.221    24.340    45.809     0.000     0.000     0.000     0.000     0.000     0.000     0.000     0.000     0.000     0.000     0.000     0.000     0.000 .00000E+00 0.000E+00 0.000E+00 0.000E+00
BIGSUB  26        0    1.49283E+05     4.172     0.000   118.464    38.107   133.420     0.000     0.000     0.000     0.000     0.000     0.000     0.000     0.000     0.000     0.000     0.000     0.000     0.000 .00000E+00 0.000E+00 0.000E+00 0.000E+00
BIGSUB  27        0    1.16997E+05     0.200     0.000   124.995    36.607   131.026     0.000     0.000     0.000     0.000     0.000     0.000     0.000     0.000     0.000     0.000     0.000     0.000     0.000 .00000E+00 0.000E+00 0.000E+00 0.000E+00
BIGSUB  28        0    1.53340E+05     0.200     0.000   122.845    35.153   129.060     0.000     0.000     0.000     0.000     0.000     0.000     0.000     0.000     0.000     0.000     0.000     0.000     0.000 .00000E+00 0.000E+00 0.000E+00 0.000E+00
BIGSUB  29        0    1.39852E+02     0.200     0.000   125.763    24.894    45.254     0.000     0.000     0.000     0.000     0.000     0.000     0.000     0.000     0.000     0.000     0.000     0.000     0.000 .00000E+00 0.000E+00 0.000E+00 0.000E+00
BIGSUB  30        0    1.65447E+02     0.200     0.000   120.398    24.358    45.791     0.000     0.000     0.000     0.000     0.000     0.000     0.000     0.000     0.000     0.000     0.000     0.000     0.000 .00000E+00 0.000E+00 0.000E+00 0.000E+00
BIGSUB  31        0    1.12400E+05     0.400     0.000   120.017    24.559    45.840     0.000     0.000     0.000     0.000     0.000     0.000     0.000     0.000     0.000     0.000     0.000     0.000     0.000 .00000E+00 0.000E+00 0.000E+00 0.000E+00
BIGSUB  32        0    1.42344E+04     0.200     0.000   137.997    37.676   120.085     0.000     0.000     0.000     0.000     0.000     0.000     0.000     0.000     0.000     0.000     0.000     0.000     0.000 .00000E+00 0.000E+00 0.000E+00 0.000E+00
BIGSUB  33        0    1.25154E+04     0.200     0.000   136.510    37.387   120.270     0.000     0.000     0.000     0.000     0.000     0.000     0.000     0.000     0.000     0.000     0.000     0.000     0.000 .00000E+00 0.000E+00 0.000E+00 0.000E+00
BIGSUB  34        0    1.38658E+02     0.200     0.000   133.664    25.500    44.307     0.000     0.000     0.000     0.000     0.000     0.000     0.000     0.000     0.000     0.000     0.000     0.000     0.000 .00000E+00 0.000E+00 0.000E+00 0.000E+00
BIGSUB  35        0    1.28750E+05     0.200     0.000   132.535    23.532    42.117     0.000     0.000     0.000     0.000     0.000     0.000     0.000     0.000     0.000     0.000     0.000     0.000     0.000 .00000E+00 0.000E+00 0.000E+00 0.000E+00
BIGSUB  36        0    1.18909E+05     0.687     0.000   130.182    24.681    43.497     0.000     0.000     0.000     0.000     0.000     0.000     0.000     0.000     0.000     0.000     0.000     0.000     0.000 .00000E+00 0.000E+00 0.000E+00 0.000E+00
BIGSUB  37        0    1.30714E+05     2.830     0.000   113.503    20.882    43.551     0.000     0.000     0.000     0.000     0.000     0.000     0.000     0.000     0.000     0.000     0.000     0.000     0.000 .00000E+00 0.000E+00 0.000E+00 0.000E+00
BIGSUB  38        0    1.41997E+03     0.200     0.000   134.302     8.180     8.932     0.000     0.000     0.000     0.000     0.000     0.000     0.000     0.000     0.000     0.000     0.000     0.000     0.000 .00000E+00 0.000E+00 0.000E+00 0.000E+00
BIGSUB  39        0    1.83400E+01     0.200     0.000   133.746    25.508    44.300     0.000     0.000     0.000     0.000     0.000     0.000     0.000     0.000     0.000     0.000     0.000     0.000     0.000 .00000E+00 0.000E+00 0.000E+00 0.000E+00
BIGSUB  40        0    1.16618E+05     0.100     0.000   135.700    25.294    43.725     0.000     0.000     0.000     0.000     0.000     0.000     0.000     0.000     0.000     0.000     0.000     0.000     0.000 .00000E+00 0.000E+00 0.000E+00 0.000E+00
BIGSUB  41        0    1.62762E+04     0.200     0.000   149.742    41.571   136.091     0.000     0.000     0.000     0.000     0.000     0.000     0.000     0.000     0.000     0.000     0.000     0.000     0.000 .00000E+00 0.000E+00 0.000E+00 0.000E+00
BIGSUB  42        0    1.35837E+04     0.200     0.000   143.989    32.841    76.234     0.000     0.000     0.000     0.000     0.000     0.000     0.000     0.000     0.000     0.000     0.000     0.000     0.000 .00000E+00 0.000E+00 0.000E+00 0.000E+00
BIGSUB  43        0    1.60762E+05     5.098     0.000   134.312    39.180   125.477     0.000     0.000     0.000     0.000     0.000     0.000     0.000     0.000     0.000     0.000     0.000     0.000     0.000 .00000E+00 0.000E+00 0.000E+00 0.000E+00
BIGSUB  44        0    1.21892E+05     0.200     0.000   136.156    39.110   137.771     0.000     0.000     0.000     0.000     0.000     0.000     0.000     0.000     0.000     0.000     0.000     0.000     0.000 .00000E+00 0.000E+00 0.000E+00 0.000E+00
BIGSUB  45        0    1.50840E+04     5.481     0.000   136.956    39.876   120.825     0.000     0.000     0.000     0.000     0.000     0.000     0.000     0.000     0.000     0.000     0.000     0.000     0.000 .00000E+00 0.000E+00 0.000E+00 0.000E+00
BIGSUB  46        0    1.37870E+04    12.793     0.000   140.389    17.246     5.314     0.000     0.000     0.000     0.000     0.000     0.000     0.000     0.000     0.000     0.000     0.000     0.000     0.000 .00000E+00 0.000E+00 0.000E+00 0.000E+00
BIGSUB  47        0    1.17106E+05     8.523     0.000   142.504    14.013     4.278     0.000     0.000     0.000     0.000     0.000     0.000     0.000     0.000     0.000     0.000     0.000     0.000     0.000 .00000E+00 0.000E+00 0.000E+00 0.000E+00
BIGSUB   1        0    2.17181E+05    34.478     0.000    10.894     0.799    27.733     0.000     0.000     0.000     0.000     0.000     0.000     0.000     0.000     0.000     0.000     0.000     0.000     0.000 .00000E+00 0.000E+00 0.000E+00 0.000E+00
BIGSUB   2        0    2.37268E+05    17.776     0.000    13.408     0.393     6.714     0.000     0.000     0.000     0.000     0.000     0.000     0.000     0.000     0.000     0.000     0.000     0.000     0.000 .00000E+00 0.000E+00 0.000E+00 0.000E+00
BIGSUB   3        0    2.26352E+05    19.654     2.653    17.902     2.983    13.559     0.000     0.044     0.000     0.044     0.071     0.173     0.021     0.003     0.000     0.018     0.000     0.000     0.000 .00000E+00 0.000E+00 0.000E+00 0.000E+00
BIGSUB   4        0    2.28179E+04    72.295    63.603    41.378    28.137   167.818     0.000    30.092     0.000    30.196    11.701    14.296     1.751     0.084     0.007     3.516     0.104     0.005     0.000 .00000E+00 0.000E+00 0.000E+00 0.000E+00
BIGSUB   5        0    2.31473E+04    56.129    49.071    46.691    26.932   132.130     0.000    17.110     0.000    17.121     9.305    10.773     1.320     0.055     0.004     2.644     0.011     0.000     0.000 .00000E+00 0.000E+00 0.000E+00 0.000E+00
BIGSUB   6        0    2.21466E+05    42.343     6.454    61.242    28.888    69.251     1.386     0.682     0.000     0.708     0.158     0.395     0.048     0.006     0.000     0.071     0.024     0.001     0.000 .00000E+00 0.000E+00 0.000E+00 0.000E+00
BIGSUB   7        0    2.31060E+05    43.900     0.000    90.799    27.637    29.249    11.695     0.182     0.380     0.680     0.027     0.102     0.012     0.002     0.000     0.016     0.093     0.005     0.000 .00000E+00 0.000E+00 0.000E+00 0.000E+00
BIGSUB   8        0    2.46786E+04    53.240     0.000    97.872    42.056    69.243     5.559     0.685     0.000     0.720     0.155     0.677     0.083     0.012     0.000     0.082     0.026     0.001     0.000 .00000E+00 0.000E+00 0.000E+00 0.000E+00
BIGSUB   9        0    2.19100E+05    33.374     0.000   100.111    36.125    57.432     0.000     0.109     0.000     0.124     0.026     0.139     0.017     0.001     0.000     0.017     0.015     0.000     0.000 .00000E+00 0.000E+00 0.000E+00 0.000E+00
BIGSUB  10        0    2.15249E+05    16.332     0.000   106.247    17.085    47.454     0.000     0.026     0.000     0.030     0.007     0.035     0.004     0.002     0.000     0.004     0.003     0.000     0.000 .00000E+00 0.000E+00 0.000E+00 0.000E+00
BIGSUB  11        0    2.13782E+05    17.219     0.000   122.652    29.690    46.627     0.000     0.056     0.000     0.067     0.010     0.054     0.007     0.001     0.000     0.006     0.012     0.000     0.000 .00000E+00 0.000E+00 0.000E+00 0.000E+00
BIGSUB  12        0    2.23156E+05     0.100     0.000   137.254    20.660    34.753     0.000     0.005     0.000     0.010     0.000     0.004     0.001     0.000     0.000     0.001     0.005     0.000     0.000 .00000E+00 0.000E+00 0.000E+00 0.000E+00
BIGSUB  13        0    2.11181E+05    17.964     0.000   119.802    32.766    48.181     0.000     0.018     0.000     0.033     0.011     0.032     0.004     0.001     0.000     0.004     0.015     0.000     0.000 .00000E+00 0.000E+00 0.000E+00 0.000E+00
BIGSUB  14        0    2.68337E+04    36.758     0.000   117.384    35.928    56.598     0.000     0.072     0.000     0.092     0.027     0.108     0.013     0.001     0.000     0.013     0.020     0.000     0.000 .00000E+00 0.000E+00 0.000E+00 0.000E+00
BIGSUB  15        0    2.64465E+02    38.033     0.000   118.768    38.534    59.020     0.000     0.009     0.000     0.029     0.003     0.011     0.001     0.000     0.000     0.001     0.020     0.000     0.000 .00000E+00 0.000E+00 0.000E+00 0.000E+00
BIGSUB  16        0    2.42580E+05    28.765     0.000   114.792    35.535    49.509     0.000     0.017     0.000     0.035     0.014     0.041     0.005     0.000     0.000     0.005     0.018     0.000     0.000 .00000E+00 0.000E+00 0.000E+00 0.000E+00
BIGSUB  17        0    2.10127E+05    40.441     0.000   121.783    40.583    58.313     0.000     0.042     0.000     0.058     0.028     0.078     0.010     0.001     0.000     0.009     0.016     0.000     0.000 .00000E+00 0.000E+00 0.000E+00 0.000E+00
BIGSUB  18        0    2.19915E+04    13.722     0.000   134.128    28.788   115.531     0.000     0.000     0.000     0.012     0.000     0.000     0.000     0.000     0.000     0.000     0.012     0.000     0.000 .00000E+00 0.000E+00 0.000E+00 0.000E+00
BIGSUB  19        0    2.25128E+05    36.029     0.000   133.900    43.038    48.230     0.000     0.344     0.000     0.349     0.023     0.158     0.019     0.008     0.000     0.019     0.004     0.000     0.000 .00000E+00 0.000E+00 0.000E+00 0.000E+00
BIGSUB  20        0    2.16808E+05     5.530     0.000   123.917    15.536    41.378     0.000     0.000     0.000     0.003     0.000     0.000     0.000     0.000     0.000     0.000     0.002     0.000     0.000 .00000E+00 0.000E+00 0.000E+00 0.000E+00
BIGSUB  21        0    2.11487E+05     0.300     0.000   120.954     8.655    38.738     0.000     0.000     0.000     0.000     0.000     0.000     0.000     0.000     0.000     0.000     0.000     0.000     0.000 .00000E+00 0.000E+00 0.000E+00 0.000E+00
BIGSUB  22        0    2.55831E+05     7.339     0.000   143.434    16.609    35.760     0.000     0.039     0.000     0.040     0.018     0.054     0.007     0.007     0.000     0.006     0.002     0.000     0.000 .00000E+00 0.000E+00 0.000E+00 0.000E+00
BIGSUB  23        0    2.19942E+05    14.330     0.000   125.180    19.271    50.728     0.000     0.015     0.000     0.018     0.001     0.004     0.001     0.001     0.000     0.001     0.003     0.000     0.000 .00000E+00 0.000E+00 0.000E+00 0.000E+00
BIGSUB  24        0    2.45060E+04     0.100     0.000   145.998     9.698    36.934     0.000     0.000     0.000     0.000     0.000     0.000     0.000     0.000     0.000     0.000     0.000     0.000     0.000 .00000E+00 0.000E+00 0.000E+00 0.000E+00
BIGSUB  25        0    2.43253E+03     0.100     0.000   143.274     8.861    37.047     0.000     0.000     0.000     0.000     0.000     0.000     0.000     0.000     0.000     0.000     0.000     0.000     0.000 .00000E+00 0.000E+00 0.000E+00 0.000E+00
BIGSUB  26        0    2.49283E+05     0.300     0.000   136.042    25.996   107.724     0.000     0.000     0.000     0.000     0.000     0.000     0.000     0.000     0.000     0.000     0.000     0.000     0.000 .00000E+00 0.000E+00 0.000E+00 0.000E+00
BIGSUB  27        0    2.16997E+05    19.439     0.000   142.110    36.201   113.970     0.000     0.291     0.000     0.292     0.004     0.026     0.003     0.010     0.000     0.004     0.001     0.000     0.000 .00000E+00 0.000E+00 0.000E+00 0.000E+00
BIGSUB  28        0    2.53340E+05     8.603     0.000   139.245    28.868   108.784     0.000     0.010     0.000     0.010     0.000     0.000     0.000     0.001     0.000     0.000     0.000     0.000     0.000 .00000E+00 0.000E+00 0.000E+00 0.000E+00
BIGSUB  29        0    2.39852E+02     0.100     0.000   147.748     9.571    35.784     0.000     0.000     0.000     0.000     0.000     0.000     0.000     0.000     0.000     0.000     0.000     0.000     0.000 .00000E+00 0.000E+00 0.000E+00 0.000E+00
BIGSUB  30        0    2.65447E+02     0.100     0.000   143.421     8.906    36.984     0.000     0.000     0.000     0.000     0.000     0.000     0.000     0.000     0.000     0.000     0.000     0.000     0.000 .00000E+00 0.000E+00 0.000E+00 0.000E+00
BIGSUB  31        0    2.12400E+05    63.298     0.000   134.545    38.229    56.037     7.674     4.676     0.000     4.684     0.245     1.516     0.186     0.072     0.001     0.183     0.003     0.000     0.000 .00000E+00 0.000E+00 0.000E+00 0.000E+00
BIGSUB  32        0    2.42344E+04     8.496     0.000   158.184    27.159   101.416     0.000     0.005     0.000     0.005     0.000     0.000     0.000     0.001     0.000     0.000     0.000     0.000     0.000 .00000E+00 0.000E+00 0.000E+00 0.000E+00
BIGSUB  33        0    2.25154E+04     6.000     0.000   159.318    24.808   101.461     0.000     0.000     0.000     0.000     0.000     0.000     0.000     0.000     0.000     0.000     0.000     0.000     0.000 .00000E+00 0.000E+00 0.000E+00 0.000E+00
BIGSUB  34        0    2.38658E+02     7.627     0.000   157.134    17.415    34.519     0.000     0.000     0.000     0.000     0.000     0.000     0.000     0.000     0.000     0.000     0.000     0.000     0.000 .00000E+00 0.000E+00 0.000E+00 0.000E+00
BIGSUB  35        0    2.28750E+05     4.974     0.000   156.217    14.251    32.835     0.000     0.000     0.000     0.001     0.000     0.000     0.000     0.000     0.000     0.000     0.001     0.000     0.000 .00000E+00 0.000E+00 0.000E+00 0.000E+00
BIGSUB  36        0    2.18909E+05     3.952     0.000   151.114    13.499    33.946     0.000     0.000     0.000     0.001     0.000     0.000     0.000     0.000     0.000     0.000     0.001     0.000     0.000 .00000E+00 0.000E+00 0.000E+00 0.000E+00
BIGSUB  37        0    2.30714E+05     0.100     0.000   143.569    10.078    33.573     0.000     0.000     0.000     0.000     0.000     0.000     0.000     0.000     0.000     0.000     0.000     0.000     0.000 .00000E+00 0.000E+00 0.000E+00 0.000E+00
BIGSUB  38        0    2.41997E+03     9.469     0.000   157.687    11.313     5.945     1.136     0.006     0.000     0.009     0.000     0.001     0.000     0.000     0.000     0.000     0.000     0.000     0.000 .00000E+00 0.000E+00 0.000E+00 0.000E+00
BIGSUB  39        0    2.83400E+01     7.627     0.000   157.202    17.412    34.514     0.000     0.000     0.000     0.000     0.000     0.000     0.000     0.000     0.000     0.000     0.000     0.000     0.000 .00000E+00 0.000E+00 0.000E+00 0.000E+00
BIGSUB  40        0    2.16618E+05     0.100     0.000   160.258    12.083    31.742     0.000     0.000     0.000     0.000     0.000     0.000     0.000     0.000     0.000     0.000     0.000     0.000     0.000 .00000E+00 0.000E+00 0.000E+00 0.000E+00
BIGSUB  41        0    2.62762E+04     0.100     0.000   174.129    24.989   111.202     0.000     0.000     0.000     0.000     0.000     0.000     0.000     0.000     0.000     0.000     0.000     0.000     0.000 .00000E+00 0.000E+00 0.000E+00 0.000E+00
BIGSUB  42        0    2.35837E+04     0.100     0.000   162.689    18.697    57.637     0.000     0.000     0.000     0.000     0.000     0.000     0.000     0.000     0.000     0.000     0.000     0.000     0.000 .00000E+00 0.000E+00 0.000E+00 0.000E+00
BIGSUB  43        0    2.60762E+05    37.235     0.000   147.093    44.497   118.188     0.000     0.014     0.000     0.017     0.000     0.002     0.000     0.000     0.000     0.000     0.002     0.000     0.000 .00000E+00 0.000E+00 0.000E+00 0.000E+00
BIGSUB  44        0    2.21892E+05     5.371     0.000   158.360    26.803   116.339     0.000     0.000     0.000     0.000     0.000     0.000     0.000     0.000     0.000     0.000     0.000     0.000     0.000 .00000E+00 0.000E+00 0.000E+00 0.000E+00
BIGSUB  45        0    2.50840E+04     0.300     0.000   154.547    27.541    93.583     0.000     0.000     0.000     0.000     0.000     0.000     0.000     0.000     0.000     0.000     0.000     0.000     0.000 .00000E+00 0.000E+00 0.000E+00 0.000E+00
BIGSUB  46        0    2.37870E+04     0.300     0.000   158.880     3.974     1.640     0.000     0.000     0.000     0.000     0.000     0.000     0.000     0.000     0.000     0.000     0.000     0.000     0.000 .00000E+00 0.000E+00 0.000E+00 0.000E+00
BIGSUB  47        0    2.17106E+05     0.300     0.000   163.903     4.068     0.510     0.000     0.000     0.000     0.000     0.000     0.000     0.000     0.000     0.000     0.000     0.000     0.000     0.000 .00000E+00 0.000E+00 0.000E+00 0.000E+00
BIGSUB   1        0    3.17181E+05    65.337    10.390    20.112     3.516    30.362     0.000     4.109     0.000     4.109     1.624     4.726     0.579     0.165     0.001     0.692     0.000     0.000     0.000 .00000E+00 0.000E+00 0.000E+00 0.000E+00
BIGSUB   2        0    3.37268E+05    23.502    23.233    29.032     6.304    15.230     0.000     8.215     0.000     8.215     2.706     3.759     0.460     0.252     0.002     0.953     0.000     0.000     0.000 .00000E+00 0.000E+00 0.000E+00 0.000E+00
BIGSUB   3        0    3.26352E+05    42.943    18.477    26.383     6.429    19.206     0.000     7.365     0.000     7.365    12.108    29.424     3.604     0.186     0.002     3.019     0.000     0.000     0.000 .00000E+00 0.000E+00 0.000E+00 0.000E+00
BIGSUB   4        0    3.28179E+04   106.548    61.482    50.560    39.915   182.879    14.807    37.282     0.052    37.862    16.036    14.405     1.765     0.063     0.007     3.570     0.522     0.029     0.000 .00000E+00 0.000E+00 0.000E+00 0.000E+00
BIGSUB   5        0    3.31473E+04    86.301    54.256    58.588    39.985   158.919     0.000    22.905     0.000    23.107    11.239    12.964     1.588     0.043     0.005     3.195     0.203     0.010     0.000 .00000E+00 0.000E+00 0.000E+00 0.000E+00
BIGSUB   6        0    3.21466E+05    32.514     0.000    88.178    35.359    58.658     7.317     0.449     0.932     1.483     0.074     0.208     0.025     0.004     0.000     0.037     0.057     0.002     0.000 .00000E+00 0.000E+00 0.000E+00 0.000E+00
BIGSUB   7        0    3.31060E+05     8.636     0.000   130.946    27.880     3.764     6.048     0.154     5.291     5.709     0.020     0.087     0.011     0.002     0.000     0.014     0.143     0.007     0.003 .00000E+00 0.000E+00 0.000E+00 0.000E+00
BIGSUB   8        0    3.46786E+04    19.852     0.000   140.500    46.162    39.363     3.386     0.441     0.004     0.548     0.048     0.339     0.041     0.007     0.000     0.041     0.046     0.002     0.000 .00000E+00 0.000E+00 0.000E+00 0.000E+00
BIGSUB   9        0    3.19100E+05    28.263     0.000   142.612    49.752    35.838     0.000     0.068     0.000     0.094     0.016     0.082     0.010     0.001     0.000     0.010     0.026     0.000     0.000 .00000E+00 0.000E+00 0.000E+00 0.000E+00
BIGSUB  10        0    3.15249E+05     6.634     0.000   146.895    33.992    20.078     0.000     0.009     0.000     0.016     0.003     0.013     0.002     0.006     0.000     0.002     0.006     0.000     0.000 .00000E+00 0.000E+00 0.000E+00 0.000E+00
BIGSUB  11        0    3.13782E+05     2.672     0.000   170.012    45.349     4.242     0.000     0.000     0.000     0.012     0.000     0.000     0.000     0.000     0.000     0.000     0.012     0.000     0.000 .00000E+00 0.000E+00 0.000E+00 0.000E+00
BIGSUB  12        0    3.23156E+05     6.087     0.000   180.623    35.757     5.073     0.000     0.004     0.000     0.007     0.001     0.003     0.000     0.003     0.000     0.000     0.004     0.000     0.000 .00000E+00 0.000E+00 0.000E+00 0.000E+00
BIGSUB  13        0    3.11181E+05    37.630     0.000   158.422    53.670    31.931     0.000     0.148     0.000     0.171     0.094     0.268     0.033     0.004     0.000     0.032     0.023     0.000     0.000 .00000E+00 0.000E+00 0.000E+00 0.000E+00
BIGSUB  14        0    3.68337E+04    41.929     0.000   151.486    63.206    34.932     0.000     0.295     0.000     0.334     0.085     0.347     0.043     0.004     0.000     0.042     0.039     0.001     0.000 .00000E+00 0.000E+00 0.000E+00 0.000E+00
BIGSUB  15        0    3.64465E+02    52.515     0.000   153.868    69.834    41.252     0.000     0.368     0.000     0.408     0.187     0.579     0.071     0.001     0.000     0.070     0.040     0.001     0.000 .00000E+00 0.000E+00 0.000E+00 0.000E+00
BIGSUB  16        0    3.42580E+05    34.216     0.000   158.429    56.330    27.295     0.000     0.047     0.000     0.077     0.044     0.116     0.014     0.001     0.000     0.014     0.030     0.000     0.000 .00000E+00 0.000E+00 0.000E+00 0.000E+00
BIGSUB  17        0    3.10127E+05    68.213     0.000   157.435    76.456    44.100     3.693     1.665     0.000     1.734     0.315     1.025     0.126     0.014     0.000     0.124     0.051     0.001     0.000 .00000E+00 0.000E+00 0.000E+00 0.000E+00
BIGSUB  18        0    3.19915E+04    36.780     0.000   165.821    61.489    90.014     0.000     0.689     0.000     0.707     0.231     0.669     0.082     0.011     0.000     0.096     0.017     0.000     0.000 .00000E+00 0.000E+00 0.000E+00 0.000E+00
BIGSUB  19        0    3.25128E+05    56.745     0.000   172.093    74.663    26.098     0.000     3.550     0.000     3.559     0.229     1.424     0.174     0.090     0.001     0.172     0.009     0.000     0.000 .00000E+00 0.000E+00 0.000E+00 0.000E+00
BIGSUB  20        0    3.16808E+05    40.690     0.000   156.033    57.756    24.080     0.000     0.165     0.000     0.178     0.064     0.223     0.027     0.004     0.000     0.027     0.013     0.000     0.000 .00000E+00 0.000E+00 0.000E+00 0.000E+00
BIGSUB  21        0    3.11487E+05    47.197     0.000   152.819    61.912    23.243     0.000     0.594     0.000     0.607     0.187     0.745     0.091     0.034     0.000     0.090     0.013     0.001     0.000 .00000E+00 0.000E+00 0.000E+00 0.000E+00
BIGSUB  22        0    3.55831E+05     0.200     0.000   178.822    31.530     4.430     0.000     0.000     0.000     0.002     0.000     0.000     0.000     0.000     0.000     0.000     0.002     0.000     0.000 .00000E+00 0.000E+00 0.000E+00 0.000E+00
BIGSUB  23        0    3.19942E+05    32.382     0.000   160.529    73.639     9.280     0.000     0.141     0.000     0.152     0.005     0.021     0.003     0.001     0.000     0.003     0.011     0.000     0.000 .00000E+00 0.000E+00 0.000E+00 0.000E+00
BIGSUB  24        0    3.45060E+04    44.799     0.000   176.476    76.381     4.438     0.000     0.878     0.000     0.879     0.081     0.518     0.063     0.032     0.000     0.063     0.001     0.000     0.000 .00000E+00 0.000E+00 0.000E+00 0.000E+00
BIGSUB  25        0    3.43253E+03    45.526     0.000   170.110    80.205     1.954     0.000     0.397     0.000     0.398     0.103     0.346     0.042     0.012     0.000     0.042     0.001     0.000     0.000 .00000E+00 0.000E+00 0.000E+00 0.000E+00
BIGSUB  26        0    3.49283E+05    65.852     0.000   162.180    73.693    98.423     0.000     1.197     0.000     1.200     0.014     0.092     0.011     0.007     0.000     0.013     0.003     0.000     0.000 .00000E+00 0.000E+00 0.000E+00 0.000E+00
BIGSUB  27        0    3.16997E+05    53.833     0.000   169.484    83.010    84.402     1.797     0.525     0.007     0.535     0.009     0.067     0.008     0.004     0.000     0.009     0.002     0.000     0.000 .00000E+00 0.000E+00 0.000E+00 0.000E+00
BIGSUB  28        0    3.53340E+05    73.553     0.000   165.797    74.667   103.226     0.000     3.672     0.000     3.674     0.034     0.230     0.028     0.017     0.001     0.032     0.002     0.000     0.000 .00000E+00 0.000E+00 0.000E+00 0.000E+00
BIGSUB  29        0    3.39852E+02    42.301     0.000   173.030    68.649     7.924     0.001     1.493     0.000     1.495     0.423     1.301     0.159     0.158     0.000     0.158     0.002     0.000     0.000 .00000E+00 0.000E+00 0.000E+00 0.000E+00
BIGSUB  30        0    3.65447E+02    45.526     0.000   170.196    82.490     0.000     0.001     0.000     0.000     0.002     0.000     0.000     0.000     0.000     0.000     0.000     0.002     0.000     0.000 .00000E+00 0.000E+00 0.000E+00 0.000E+00
BIGSUB  31        0    3.12400E+05   132.321     0.000   161.358   105.319    45.506    27.389    10.679     6.551    17.406     0.423     2.775     0.340     0.071     0.003     0.336     0.017     0.001     0.009 .00000E+00 0.000E+00 0.000E+00 0.000E+00
BIGSUB  32        0    3.42344E+04    28.723     0.000   185.519    90.370    41.796     0.000     0.065     0.000     0.065     0.002     0.007     0.001     0.001     0.000     0.001     0.000     0.000     0.000 .00000E+00 0.000E+00 0.000E+00 0.000E+00
BIGSUB  33        0    3.25154E+04     0.400     0.000   190.024    91.420    10.708     0.161     0.000     0.035     0.036     0.000     0.000     0.000     0.000     0.000     0.000     0.000     0.000     0.000 .00000E+00 0.000E+00 0.000E+00 0.000E+00
BIGSUB  34        0    3.38658E+02     0.500     0.000   185.683    35.019     0.000     0.001     0.000     0.000     0.000     0.000     0.000     0.000     0.000     0.000     0.000     0.000     0.000     0.000 .00000E+00 0.000E+00 0.000E+00 0.000E+00
BIGSUB  35        0    3.28750E+05     0.200     0.000   190.443    32.494     0.542     0.000     0.000     0.000     0.001     0.000     0.000     0.000     0.000     0.000     0.000     0.001     0.000     0.000 .00000E+00 0.000E+00 0.000E+00 0.000E+00
BIGSUB  36        0    3.18909E+05     0.100     0.000   186.521    31.994     2.052     0.000     0.000     0.000     0.001     0.000     0.000     0.000     0.000     0.000     0.000     0.001     0.000     0.000 .00000E+00 0.000E+00 0.000E+00 0.000E+00
BIGSUB  37        0    3.30714E+05     0.516     0.000   180.190    29.304     4.786     0.000     0.000     0.000     0.000     0.000     0.000     0.000     0.000     0.000     0.000     0.000     0.000     0.000 .00000E+00 0.000E+00 0.000E+00 0.000E+00
BIGSUB  38        0    3.41997E+03     0.400     0.000   187.638     2.124     4.221     0.000     0.000     0.000     0.010     0.000     0.000     0.000     0.000     0.000     0.000     0.000     0.000     0.000 .00000E+00 0.000E+00 0.000E+00 0.000E+00
BIGSUB  39        0    3.83400E+01     0.500     0.000   185.720    35.014     0.000     0.000     0.000     0.000     0.000     0.000     0.000     0.000     0.000     0.000     0.000     0.000     0.000     0.000 .00000E+00 0.000E+00 0.000E+00 0.000E+00
BIGSUB  40        0    3.16618E+05     0.400     0.000   192.594    30.977     1.166     0.000     0.000     0.000     0.000     0.000     0.000     0.000     0.000     0.000     0.000     0.000     0.000     0.000 .00000E+00 0.000E+00 0.000E+00 0.000E+00
BIGSUB  41        0    3.62762E+04    37.329     0.000   205.496   103.435    45.070     0.000     0.021     0.000     0.022     0.002     0.007     0.001     0.000     0.000     0.001     0.000     0.000     0.000 .00000E+00 0.000E+00 0.000E+00 0.000E+00
BIGSUB  42        0    3.35837E+04    55.959     0.000   185.151    77.765    35.406     0.000     0.373     0.000     0.374     0.005     0.023     0.003     0.006     0.000     0.005     0.001     0.000     0.000 .00000E+00 0.000E+00 0.000E+00 0.000E+00
BIGSUB  43        0    3.60762E+05    73.937     0.000   179.835   100.803    90.329     0.000     0.948     0.000     0.956     0.020     0.125     0.015     0.009     0.000     0.018     0.008     0.000     0.000 .00000E+00 0.000E+00 0.000E+00 0.000E+00
BIGSUB  44        0    3.21892E+05    31.724     0.000   185.819    93.147    54.853     0.000     0.058     0.000     0.058     0.003     0.015     0.002     0.001     0.000     0.002     0.000     0.000     0.000 .00000E+00 0.000E+00 0.000E+00 0.000E+00
BIGSUB  45        0    3.50840E+04    57.081     0.000   180.907    73.240    77.145     0.050     0.481     0.000     0.483     0.008     0.053     0.006     0.004     0.000     0.008     0.001     0.000     0.000 .00000E+00 0.000E+00 0.000E+00 0.000E+00
BIGSUB  46        0    3.37870E+04    36.318     0.000   184.319    21.841     2.758    10.719     2.470     0.000     2.494     0.013     0.142     0.017     0.241     0.001     0.017     0.001     0.000     0.000 .00000E+00 0.000E+00 0.000E+00 0.000E+00
BIGSUB  47        0    3.17106E+05    48.025     0.000   188.491    26.189     6.988    13.309     1.315     0.000     1.334     0.004     0.045     0.006     0.091     0.000     0.005     0.001     0.000     0.000 .00000E+00 0.000E+00 0.000E+00 0.000E+00
BIGSUB   1        0    4.17181E+05    55.373   122.738    44.921    20.555    60.923     0.000    74.149     0.000    74.149    36.533    76.191     9.333     0.402     0.016    11.217     0.000     0.000     0.000 .00000E+00 0.000E+00 0.000E+00 0.000E+00
BIGSUB   2        0    4.37268E+05    22.056    48.607    57.401    18.688    19.215     0.000    23.980     0.000    23.981     6.884     9.978     1.222     0.212     0.006     2.536     0.000     0.000     0.000 .00000E+00 0.000E+00 0.000E+00 0.000E+00
BIGSUB   3        0    4.26352E+05    34.620    72.776    51.704    24.579    25.564     0.000    44.493     0.000    44.629    85.163   159.433    19.531     0.272     0.010    16.438     0.136     0.004     0.000 .00000E+00 0.000E+00 0.000E+00 0.000E+00
BIGSUB   4        0    4.28179E+04    81.483    10.835    74.331    59.628   175.140    27.655    11.379     8.106    20.960     4.475     3.790     0.464     0.017     0.002     0.945     1.320     0.066     0.008 .00000E+00 0.000E+00 0.000E+00 0.000E+00
BIGSUB   5        0    4.31473E+04    54.540     7.058    78.832    51.748   164.268     0.000     0.203     0.000     0.601     0.131     0.093     0.011     0.000     0.000     0.023     0.398     0.015     0.000 .00000E+00 0.000E+00 0.000E+00 0.000E+00
BIGSUB   6        0    4.21466E+05    40.150     0.000   111.594    52.188    46.370     0.000     0.238     0.669     1.041     0.043     0.118     0.014     0.003     0.000     0.021     0.059     0.002     0.000 .00000E+00 0.000E+00 0.000E+00 0.000E+00
BIGSUB   7        0    4.31060E+05    65.891     0.000   146.194    57.201     9.300     2.461     0.301     1.388     1.996     0.048     0.168     0.021     0.006     0.000     0.027     0.151     0.005     0.001 .00000E+00 0.000E+00 0.000E+00 0.000E+00
BIGSUB   8        0    4.46786E+04    65.601     0.000   157.409    95.538     9.661    10.947     0.727     0.331     1.193     0.151     0.709     0.087     0.008     0.000     0.086     0.054     0.001     0.000 .00000E+00 0.000E+00 0.000E+00 0.000E+00
BIGSUB   9        0    4.19100E+05    47.372     0.000   165.706    81.739     3.045     0.676     0.051     0.045     0.129     0.013     0.063     0.008     0.001     0.000     0.008     0.033     0.000     0.000 .00000E+00 0.000E+00 0.000E+00 0.000E+00
BIGSUB  10        0    4.15249E+05    50.910     0.000   154.793    66.459     4.278     0.000     0.181     0.000     0.199     0.083     0.322     0.039     0.002     0.000     0.039     0.018     0.000     0.000 .00000E+00 0.000E+00 0.000E+00 0.000E+00
BIGSUB  11        0    4.13782E+05    56.551     0.000   179.557    57.522     4.598     0.463     0.220     0.017     0.260     0.053     0.249     0.031     0.004     0.000     0.030     0.022     0.000     0.000 .00000E+00 0.000E+00 0.000E+00 0.000E+00
BIGSUB  12        0    4.23156E+05    66.307     0.000   183.702    57.993    12.305     0.000     1.236     0.000     1.254     0.307     1.461     0.179     0.028     0.000     0.177     0.018     0.001     0.000 .00000E+00 0.000E+00 0.000E+00 0.000E+00
BIGSUB  13        0    4.11181E+05   100.333     0.000   169.403   108.896    22.370     0.189     0.957     0.000     1.004     0.596     1.470     0.180     0.010     0.000     0.178     0.047     0.000     0.000 .00000E+00 0.000E+00 0.000E+00 0.000E+00
BIGSUB  14        0    4.68337E+04    24.937     0.000   162.673    57.199     2.278     0.092     0.453     0.000     0.494     0.137     0.491     0.060     0.008     0.000     0.059     0.041     0.001     0.000 .00000E+00 0.000E+00 0.000E+00 0.000E+00
BIGSUB  15        0    4.64465E+02    72.561     0.000   171.926   110.267     3.439     0.000     0.011     0.000     0.063     0.000     0.000     0.000     0.000     0.000     0.000     0.052     0.001     0.000 .00000E+00 0.000E+00 0.000E+00 0.000E+00
BIGSUB  16        0    4.42580E+05    63.424     0.000   174.650    89.159     1.400     0.000     0.061     0.000     0.105     0.060     0.166     0.020     0.001     0.000     0.020     0.044     0.000     0.000 .00000E+00 0.000E+00 0.000E+00 0.000E+00
BIGSUB  17        0    4.10127E+05   144.150     0.000   168.414   134.800    41.546     5.075     5.802     0.000     5.942     0.887     2.001     0.247     0.013     0.001     0.243     0.091     0.002     0.000 .00000E+00 0.000E+00 0.000E+00 0.000E+00
BIGSUB  18        0    4.19915E+04   111.302     0.000   171.361   134.618    65.266     0.000     1.248     0.000     1.330     0.356     1.014     0.124     0.007     0.000     0.145     0.082     0.001     0.000 .00000E+00 0.000E+00 0.000E+00 0.000E+00
BIGSUB  19        0    4.25128E+05   154.239     0.000   182.185   118.631    44.161     5.000    11.936     0.000    11.957     1.061     5.418     0.668     0.110     0.004     0.653     0.020     0.000     0.000 .00000E+00 0.000E+00 0.000E+00 0.000E+00
BIGSUB  20        0    4.16808E+05   121.975     0.000   163.095   112.423    31.612     0.404     1.364     0.000     1.411     0.554     1.552     0.191     0.007     0.000     0.188     0.046     0.001     0.000 .00000E+00 0.000E+00 0.000E+00 0.000E+00
BIGSUB  21        0    4.11487E+05   112.360     0.000   167.113   112.060    21.415     0.515     1.524     0.000     1.569     0.693     2.230     0.274     0.018     0.000     0.270     0.045     0.001     0.000 .00000E+00 0.000E+00 0.000E+00 0.000E+00
BIGSUB  22        0    4.55831E+05   104.215     0.000   182.847    85.739    19.824     0.175     2.767     0.000     2.791     2.089     5.845     0.717     0.075     0.001     0.708     0.025     0.001     0.000 .00000E+00 0.000E+00 0.000E+00 0.000E+00
BIGSUB  23        0    4.19942E+05   111.723     0.000   166.299    91.834    28.581     0.000     0.485     0.000     0.516     0.060     0.227     0.028     0.004     0.000     0.032     0.031     0.000     0.000 .00000E+00 0.000E+00 0.000E+00 0.000E+00
BIGSUB  24        0    4.45060E+04   182.383     0.000   171.962   128.127    45.631     2.160     8.580     0.000     8.597     0.761     4.033     0.494     0.051     0.002     0.489     0.014     0.000     0.000 .00000E+00 0.000E+00 0.000E+00 0.000E+00
BIGSUB  25        0    4.43253E+03   186.217     0.000   170.505   133.304    45.290     1.160     7.103     0.000     7.120     0.817     2.445     0.299     0.022     0.002     0.297     0.016     0.000     0.000 .00000E+00 0.000E+00 0.000E+00 0.000E+00
BIGSUB  26        0    4.49283E+05   163.145     0.000   171.306   115.204   129.873     4.291     8.773     0.000     8.784     0.132     0.790     0.097     0.024     0.003     0.109     0.011     0.000     0.000 .00000E+00 0.000E+00 0.000E+00 0.000E+00
BIGSUB  27        0    4.16997E+05   123.323     0.000   174.344   124.940    81.173     0.032     1.534     0.617     2.167     0.032     0.214     0.026     0.007     0.000     0.030     0.006     0.000     0.000 .00000E+00 0.000E+00 0.000E+00 0.000E+00
BIGSUB  28        0    4.53340E+05   164.939     0.000   166.612   108.400   136.987     7.181    11.315     0.000    11.323     0.133     0.835     0.102     0.040     0.003     0.115     0.006     0.000     0.000 .00000E+00 0.000E+00 0.000E+00 0.000E+00
BIGSUB  29        0    4.39852E+02   185.762     0.000   170.567   124.410    47.507     3.122    18.523     0.001    18.544     4.436    12.021     1.472     0.117     0.005     1.458     0.019     0.000     0.000 .00000E+00 0.000E+00 0.000E+00 0.000E+00
BIGSUB  30        0    4.65447E+02   186.217     0.000   170.507   135.897    44.546     0.000     5.513     0.001     5.532     0.002     0.024     0.003     0.000     0.001     0.003     0.019     0.000     0.000 .00000E+00 0.000E+00 0.000E+00 0.000E+00
BIGSUB  31        0    4.12400E+05   200.126     0.000   169.494   141.385    59.504    27.253    11.981    11.431    23.744     0.627     3.128     0.388     0.022     0.004     0.378     0.024     0.001     0.011 .00000E+00 0.000E+00 0.000E+00 0.000E+00
BIGSUB  32        0    4.42344E+04   148.707     0.000   184.225   148.385    40.781     0.000     1.325     0.000     1.326     0.037     0.139     0.017     0.005     0.000     0.024     0.002     0.000     0.000 .00000E+00 0.000E+00 0.000E+00 0.000E+00
BIGSUB  33        0    4.25154E+04   147.796     0.000   187.074   114.393    43.527     0.001     0.544     0.057     0.608     0.028     0.114     0.014     0.011     0.000     0.016     0.006     0.000     0.000 .00000E+00 0.000E+00 0.000E+00 0.000E+00
BIGSUB  34        0    4.38658E+02   132.676     0.000   185.461    99.605    30.771     0.000     2.269     0.000     2.270     0.001     0.008     0.001     0.000     0.001     0.001     0.001     0.000     0.000 .00000E+00 0.000E+00 0.000E+00 0.000E+00
BIGSUB  35        0    4.28750E+05    87.516     0.000   180.710    85.844     1.745     0.000     0.351     0.000     0.375     0.226     0.601     0.074     0.017     0.000     0.073     0.024     0.001     0.000 .00000E+00 0.000E+00 0.000E+00 0.000E+00
BIGSUB  36        0    4.18909E+05    77.815     0.000   183.814    71.867     7.304     0.000     0.602     0.000     0.616     0.142     0.660     0.081     0.023     0.000     0.080     0.014     0.001     0.000 .00000E+00 0.000E+00 0.000E+00 0.000E+00
BIGSUB  37        0    4.30714E+05    79.214     0.000   184.858    72.400     9.817     0.000     1.612     0.000     1.616     0.097     0.626     0.077     0.041     0.000     0.076     0.004     0.000     0.000 .00000E+00 0.000E+00 0.000E+00 0.000E+00
BIGSUB  38        0    4.41997E+03   149.717     0.000   186.261    62.942    11.411    61.935    13.126     1.808    15.068     0.081     0.565     0.069     0.112     0.003     0.073     0.004     0.000     0.005 .00000E+00 0.000E+00 0.000E+00 0.000E+00
BIGSUB  39        0    4.83400E+01   132.676     0.000   185.458    99.599    30.773     0.000     2.247     0.000     2.248     0.001     0.007     0.001     0.000     0.001     0.001     0.001     0.000     0.000 .00000E+00 0.000E+00 0.000E+00 0.000E+00
BIGSUB  40        0    4.16618E+05   123.300     0.000   190.207   102.192    20.448     0.249     1.388     0.000     1.389     0.048     0.345     0.042     0.023     0.000     0.042     0.001     0.000     0.000 .00000E+00 0.000E+00 0.000E+00 0.000E+00
BIGSUB  41        0    4.62762E+04    93.251     0.000   202.445   111.628    25.384     0.000     1.297     0.000     1.299     0.126     0.514     0.063     0.008     0.000     0.068     0.001     0.000     0.000 .00000E+00 0.000E+00 0.000E+00 0.000E+00
BIGSUB  42        0    4.35837E+04   142.510     0.000   180.378   112.215    53.065     3.962     8.245     0.000     8.249     0.146     0.614     0.075     0.034     0.002     0.146     0.003     0.000     0.000 .00000E+00 0.000E+00 0.000E+00 0.000E+00
BIGSUB  43        0    4.60762E+05   150.929     0.000   179.595   143.625    93.828     0.714     2.752     0.000     2.771     0.070     0.393     0.048     0.010     0.001     0.056     0.018     0.000     0.000 .00000E+00 0.000E+00 0.000E+00 0.000E+00
BIGSUB  44        0    4.21892E+05   114.266     0.000   187.134   148.115    20.437     0.000     0.556     0.000     0.557     0.032     0.163     0.020     0.003     0.000     0.022     0.001     0.000     0.000 .00000E+00 0.000E+00 0.000E+00 0.000E+00
BIGSUB  45        0    4.50840E+04   127.318     0.000   174.962   115.200    85.250     0.018     3.910     0.013     3.927     0.082     0.506     0.062     0.012     0.001     0.073     0.004     0.000     0.000 .00000E+00 0.000E+00 0.000E+00 0.000E+00
BIGSUB  46        0    4.37870E+04   123.476     0.000   175.513    46.361     7.786    52.367    14.824     4.265    19.269     0.120     1.129     0.139     0.631     0.005     0.137     0.002     0.000     0.010 .00000E+00 0.000E+00 0.000E+00 0.000E+00
BIGSUB  47        0    4.17106E+05   136.067     0.000   172.734    33.382     9.443    61.858    20.706     5.218    26.124     0.131     1.151     0.141     0.750     0.009     0.137     0.002     0.000     0.004 .00000E+00 0.000E+00 0.000E+00 0.000E+00
BIGSUB   1        0    5.17181E+05    80.492    86.018    63.996    45.032    69.250    13.305    54.301     0.234    54.601    27.917    26.696     3.270     0.173     0.006     4.023     0.060     0.003     0.000 .00000E+00 0.000E+00 0.000E+00 0.000E+00
BIGSUB   2        0    5.37268E+05    49.381    14.782    78.410    35.227    33.283     0.000     3.090     0.000     3.104     0.274     1.064     0.130     0.049     0.001     0.270     0.015     0.000     0.000 .00000E+00 0.000E+00 0.000E+00 0.000E+00
BIGSUB   3        0    5.26352E+05    47.868    35.617    72.681    40.344    38.123     0.000     5.060     0.000     5.799    12.183     1.038     0.127     0.078     0.001     0.135     0.739     0.011     0.000 .00000E+00 0.000E+00 0.000E+00 0.000E+00
BIGSUB   4        0    5.28179E+04   118.534     0.000    86.718    76.457   172.734    30.997    10.423    17.769    30.628     4.717     2.149     0.263     0.002     0.001     0.540     2.042     0.068     0.024 .00000E+00 0.000E+00 0.000E+00 0.000E+00
BIGSUB   5        0    5.31473E+04    68.222     0.000    91.516    74.601   157.216     0.000     0.149     0.000     0.619     0.299     0.042     0.005     0.001     0.000     0.011     0.469     0.009     0.000 .00000E+00 0.000E+00 0.000E+00 0.000E+00
BIGSUB   6        0    5.21466E+05   104.686     0.000   116.903    90.494    52.987     2.290     3.409     0.079     3.657     0.698     1.600     0.196     0.006     0.001     0.285     0.091     0.002     0.000 .00000E+00 0.000E+00 0.000E+00 0.000E+00
BIGSUB   7        0    5.31060E+05   155.544     0.000   139.466    96.004    26.839    34.423     4.237     4.332     9.159     0.748     2.281     0.279     0.002     0.000     0.359     0.381     0.006     0.006 .00000E+00 0.000E+00 0.000E+00 0.000E+00
BIGSUB   8        0    5.46786E+04   211.264     0.000   139.196   114.883    57.915    21.017    19.087     4.659    24.059     1.948     6.845     0.839     0.001     0.003     0.814     0.143     0.002     0.001 .00000E+00 0.000E+00 0.000E+00 0.000E+00
BIGSUB   9        0    5.19100E+05   153.841     0.000   147.386   100.971    47.878     3.844     5.754     0.535     6.390     0.839     3.388     0.420     0.002     0.001     0.399     0.088     0.001     0.000 .00000E+00 0.000E+00 0.000E+00 0.000E+00
BIGSUB  10        0    5.15249E+05   179.704     0.000   134.965   107.606    58.208     6.011     9.328     0.008     9.432     2.610     7.897     0.967     0.006     0.001     0.944     0.090     0.001     0.000 .00000E+00 0.000E+00 0.000E+00 0.000E+00
BIGSUB  11        0    5.13782E+05   185.248     0.000   150.993   119.642    53.887     4.801     7.892     0.178     8.172     1.438     5.632     0.696     0.008     0.002     0.671     0.091     0.001     0.000 .00000E+00 0.000E+00 0.000E+00 0.000E+00
BIGSUB  12        0    5.23156E+05   227.125     0.000   145.075   110.354    58.369    34.081    32.305     0.139    32.606     3.717    13.472     1.678     0.058     0.010     1.600     0.098     0.003     0.000 .00000E+00 0.000E+00 0.000E+00 0.000E+00
BIGSUB  13        0    5.11181E+05   241.086     0.000   133.793   126.922    64.611    55.969     9.483     0.276     9.976     1.089     1.952     0.243     0.001     0.002     0.234     0.160     0.002     0.001 .00000E+00 0.000E+00 0.000E+00 0.000E+00
BIGSUB  14        0    5.68337E+04   171.102     0.000   135.398   121.891    46.742     2.219     1.830     0.039     1.970     0.659     2.224     0.274     0.002     0.000     0.266     0.097     0.001     0.000 .00000E+00 0.000E+00 0.000E+00 0.000E+00
BIGSUB  15        0    5.64465E+02   202.308     0.000   145.255   134.771    60.444     6.677     3.440     0.000     3.578     0.003     0.021     0.003     0.000     0.001     0.002     0.129     0.001     0.000 .00000E+00 0.000E+00 0.000E+00 0.000E+00
BIGSUB  16        0    5.42580E+05   167.321     0.000   152.298   131.782    34.769     0.966     0.873     0.000     0.969     0.730     1.619     0.200     0.001     0.000     0.193     0.095     0.001     0.000 .00000E+00 0.000E+00 0.000E+00 0.000E+00
BIGSUB  17        0    5.10127E+05   340.002     0.000   128.913   123.644    65.234   133.378    37.304    13.835    51.751     2.103     2.246     0.294     0.002     0.008     0.267     0.300     0.005     0.032 .00000E+00 0.000E+00 0.000E+00 0.000E+00
BIGSUB  18        0    5.19915E+04   278.084     0.000   134.516   129.318   156.005    46.935     6.064     0.333     6.716     0.867     2.178     0.268     0.001     0.001     0.307     0.300     0.003     0.001 .00000E+00 0.000E+00 0.000E+00 0.000E+00
BIGSUB  19        0    5.25128E+05   426.014     0.000   144.982   126.544    69.481   150.596    75.201    12.292    87.851     4.407    16.250     2.040     0.030     0.022     1.937     0.080     0.002     0.039 .00000E+00 0.000E+00 0.000E+00 0.000E+00
BIGSUB  20        0    5.16808E+05   308.686     0.000   132.142   124.743    66.323   108.645    19.991     3.905    24.244     1.418     3.315     0.430     0.005     0.005     0.387     0.206     0.002     0.007 .00000E+00 0.000E+00 0.000E+00 0.000E+00
BIGSUB  21        0    5.11487E+05   368.262     0.000   132.743   115.291    64.195   105.397    67.779     9.203    77.439     5.337     8.743     1.115     0.015     0.015     1.041     0.234     0.004     0.021 .00000E+00 0.000E+00 0.000E+00 0.000E+00
BIGSUB  22        0    5.55831E+05   210.975     0.000   146.855   127.057    66.185    21.172    14.221     0.132    14.472     6.563    11.631     1.441     0.019     0.004     1.397     0.100     0.002     0.000 .00000E+00 0.000E+00 0.000E+00 0.000E+00
BIGSUB  23        0    5.19942E+05   230.051     0.000   134.995   125.440    73.755    40.070     9.345     0.028     9.474     0.228     0.823     0.103     0.002     0.002     0.116     0.086     0.001     0.000 .00000E+00 0.000E+00 0.000E+00 0.000E+00
BIGSUB  24        0    5.45060E+04   350.716     0.000   137.567   128.669    69.262   133.310    38.825     8.079    47.178     1.173     4.572     0.562     0.005     0.008     0.550     0.050     0.001     0.024 .00000E+00 0.000E+00 0.000E+00 0.000E+00
BIGSUB  25        0    5.43253E+03   364.435     0.000   137.712   131.157    68.556   147.350    51.572     9.544    61.427     0.973     2.380     0.292     0.003     0.010     0.288     0.058     0.001     0.030 .00000E+00 0.000E+00 0.000E+00 0.000E+00
BIGSUB  26        0    5.49283E+05   265.845     0.000   144.043   128.053   165.649    75.644    19.260     2.403    21.796     0.221     1.479     0.182     0.013     0.007     0.202     0.030     0.000     0.007 .00000E+00 0.000E+00 0.000E+00 0.000E+00
BIGSUB  27        0    5.16997E+05   259.256     0.000   143.755   127.379   162.032    34.535    14.119     1.048    15.231     0.211     1.310     0.162     0.006     0.006     0.179     0.017     0.000     0.001 .00000E+00 0.000E+00 0.000E+00 0.000E+00
BIGSUB  28        0    5.53340E+05   250.006     0.000   144.984   112.803   161.760    67.345    38.925     5.129    44.251     0.369     2.636     0.325     0.034     0.012     0.361     0.018     0.000     0.015 .00000E+00 0.000E+00 0.000E+00 0.000E+00
BIGSUB  29        0    5.39852E+02   331.952     0.000   138.092   126.854    67.838   124.581    59.535     8.048    67.874     3.124     7.722     0.946     0.001     0.009     0.919     0.066     0.002     0.023 .00000E+00 0.000E+00 0.000E+00 0.000E+00
BIGSUB  30        0    5.65447E+02   364.435     0.000   137.660   132.811    68.529   147.626    56.892     8.992    66.195     0.012     0.126     0.015     0.001     0.012     0.015     0.068     0.001     0.028 .00000E+00 0.000E+00 0.000E+00 0.000E+00
BIGSUB  31        0    5.12400E+05   644.685     0.000   125.325   117.338    73.768   279.656   161.866    55.118   218.103     4.269    11.665     1.470     0.011     0.037     1.397     0.082     0.001     0.151 .00000E+00 0.000E+00 0.000E+00 0.000E+00
BIGSUB  32        0    5.42344E+04   237.830     0.000   145.583   138.776   132.256     3.976     3.112     0.032     3.154     0.050     0.208     0.026     0.003     0.001     0.036     0.004     0.000     0.000 .00000E+00 0.000E+00 0.000E+00 0.000E+00
BIGSUB  33        0    5.25154E+04   211.002     0.000   149.394   143.139   108.897     1.684     0.746     0.053     0.825     0.026     0.123     0.015     0.001     0.000     0.017     0.022     0.000     0.000 .00000E+00 0.000E+00 0.000E+00 0.000E+00
BIGSUB  34        0    5.38658E+02   252.218     0.000   149.287   141.487    63.268    57.824    20.339     0.000    20.410     0.001     0.014     0.002     0.000     0.005     0.002     0.005     0.000     0.000 .00000E+00 0.000E+00 0.000E+00 0.000E+00
BIGSUB  35        0    5.28750E+05   128.290     0.000   151.865   120.300     9.106     0.172     0.304     0.000     0.363     0.186     0.427     0.053     0.001     0.000     0.051     0.059     0.001     0.000 .00000E+00 0.000E+00 0.000E+00 0.000E+00
BIGSUB  36        0    5.18909E+05   153.970     0.000   151.524   128.478    28.278     2.014     2.295     0.000     2.350     0.429     1.947     0.244     0.005     0.001     0.228     0.053     0.001     0.000 .00000E+00 0.000E+00 0.000E+00 0.000E+00
BIGSUB  37        0    5.30714E+05   165.824     0.000   168.580   124.887    37.540     2.594     9.409     0.000     9.427     0.537     3.475     0.431     0.024     0.002     0.410     0.015     0.000     0.000 .00000E+00 0.000E+00 0.000E+00 0.000E+00
BIGSUB  38        0    5.41997E+03   232.569     0.000   149.693   113.486    15.783    99.000    15.811    31.820    48.298     0.061     0.331     0.041     0.008     0.004     0.046     0.012     0.000     0.126 .00000E+00 0.000E+00 0.000E+00 0.000E+00
BIGSUB  39        0    5.83400E+01   252.218     0.000   149.259   141.461    63.271    57.839    20.310     0.000    20.382     0.001     0.012     0.001     0.000     0.005     0.001     0.006     0.000     0.000 .00000E+00 0.000E+00 0.000E+00 0.000E+00
BIGSUB  40        0    5.16618E+05   215.314     0.000   154.158   139.705    62.896    26.190     3.300     0.140     3.462     0.066     0.463     0.057     0.004     0.001     0.056     0.004     0.000     0.000 .00000E+00 0.000E+00 0.000E+00 0.000E+00
BIGSUB  41        0    5.62762E+04   177.380     0.000   163.322   141.567    59.158     0.418     1.588     0.000     1.592     0.093     0.458     0.056     0.001     0.000     0.060     0.004     0.000     0.000 .00000E+00 0.000E+00 0.000E+00 0.000E+00
BIGSUB  42        0    5.35837E+04   225.553     0.000   153.245   131.583   102.897    32.868    10.274     2.248    12.618     0.148     0.631     0.078     0.006     0.002     0.148     0.009     0.000     0.008 .00000E+00 0.000E+00 0.000E+00 0.000E+00
BIGSUB  43        0    5.60762E+05   324.867     0.000   146.160   135.476   151.823   101.567    22.073     4.474    26.761     0.440     2.260     0.279     0.008     0.006     0.322     0.055     0.001     0.014 .00000E+00 0.000E+00 0.000E+00 0.000E+00
BIGSUB  44        0    5.21892E+05   229.940     0.000   151.498   138.927   105.568     2.977     2.701     0.000     2.708     0.123     0.692     0.085     0.002     0.001     0.091     0.004     0.000     0.000 .00000E+00 0.000E+00 0.000E+00 0.000E+00
BIGSUB  45        0    5.50840E+04   171.822     0.000   149.377   125.397   117.630    10.367     3.259     0.026     3.306     0.055     0.344     0.042     0.005     0.001     0.049     0.009     0.000     0.000 .00000E+00 0.000E+00 0.000E+00 0.000E+00
BIGSUB  46        0    5.37870E+04   168.286     0.000   149.534    74.370    11.414    72.794    17.711    27.140    45.448     0.123     1.358     0.166     0.234     0.005     0.164     0.004     0.000     0.084 .00000E+00 0.000E+00 0.000E+00 0.000E+00
BIGSUB  47        0    5.17106E+05   174.850     0.000   146.879    64.704    11.153    83.178    29.181    33.516    63.407     0.167     1.774     0.218     0.625     0.014     0.211     0.005     0.000     0.031 .00000E+00 0.000E+00 0.000E+00 0.000E+00
BIGSUB   1        0    6.17181E+05   130.925     0.000    85.848    56.759    58.079    75.273     8.703    13.007    22.264     3.332     1.794     0.220     0.016     0.001     0.276     0.326     0.012     0.026 .00000E+00 0.000E+00 0.000E+00 0.000E+00
BIGSUB   2        0    6.37268E+05    76.118     0.000    99.692    62.433    46.406     0.000     0.302     0.000     0.342     0.101     0.083     0.010     0.002     0.000     0.021     0.040     0.001     0.000 .00000E+00 0.000E+00 0.000E+00 0.000E+00
BIGSUB   3        0    6.26352E+05    71.955     0.000    92.215    54.910    53.102     0.641     0.006     0.000     1.352     0.009     0.002     0.000     0.000     0.000     0.000     1.346     0.021     0.000 .00000E+00 0.000E+00 0.000E+00 0.000E+00
BIGSUB   4        0    6.28179E+04   283.909     0.000    96.763    95.687   182.082   109.310    35.549    27.690    67.532    12.853     0.532     0.065     0.001     0.003     0.139     3.605     0.067     0.048 .00000E+00 0.000E+00 0.000E+00 0.000E+00
BIGSUB   5        0    6.31473E+04   103.255     0.000   102.900    96.911   160.097     0.000     2.445     0.000     3.040     0.924     0.136     0.017     0.000     0.000     0.035     0.595     0.003     0.000 .00000E+00 0.000E+00 0.000E+00 0.000E+00
BIGSUB   6        0    6.21466E+05   191.326     0.000   114.645   105.031    71.916    46.027    11.157     2.691    14.148     1.427     2.568     0.314     0.000     0.001     0.446     0.174     0.002     0.003 .00000E+00 0.000E+00 0.000E+00 0.000E+00
BIGSUB   7        0    6.31060E+05   182.157     0.000   132.437   114.360    29.571    55.289     5.894    19.278    26.291     0.483     1.779     0.221     0.000     0.000     0.271     0.654     0.006     0.021 .00000E+00 0.000E+00 0.000E+00 0.000E+00
BIGSUB   8        0    6.46786E+04   220.452     0.000   130.777   125.867    66.510    67.404    20.280    17.520    38.459     0.569     1.677     0.217     0.001     0.004     0.189     0.246     0.003     0.017 .00000E+00 0.000E+00 0.000E+00 0.000E+00
BIGSUB   9        0    6.19100E+05   216.802     0.000   138.904   132.798    65.911    48.921    12.319     1.895    14.496     0.504     1.798     0.239     0.002     0.003     0.203     0.183     0.002     0.000 .00000E+00 0.000E+00 0.000E+00 0.000E+00
BIGSUB  10        0    6.15249E+05   300.076     0.000   117.900   113.596    71.236   130.737    32.894     9.780    43.190     2.437     4.926     0.632     0.002     0.006     0.563     0.261     0.004     0.020 .00000E+00 0.000E+00 0.000E+00 0.000E+00
BIGSUB  11        0    6.13782E+05   254.554     0.000   139.891   134.543    66.387    85.681    15.412     4.045    19.839     0.869     2.843     0.359     0.002     0.003     0.326     0.208     0.003     0.007 .00000E+00 0.000E+00 0.000E+00 0.000E+00
BIGSUB  12        0    6.23156E+05   211.380     0.000   139.644   127.364    66.725    61.578    15.858    11.827    28.221     0.752     2.619     0.334     0.017     0.005     0.301     0.176     0.004     0.019 .00000E+00 0.000E+00 0.000E+00 0.000E+00
BIGSUB  13        0    6.11181E+05   253.331     0.000   128.960   126.167    67.174    92.765    26.127    23.700    50.652     0.710     0.849     0.107     0.001     0.005     0.099     0.309     0.004     0.046 .00000E+00 0.000E+00 0.000E+00 0.000E+00
BIGSUB  14        0    6.68337E+04   140.197     0.000   142.292   129.093    52.245     1.273     2.842     0.529     3.530     0.219     0.743     0.093     0.001     0.001     0.086     0.140     0.001     0.001 .00000E+00 0.000E+00 0.000E+00 0.000E+00
BIGSUB  15        0    6.64465E+02   228.298     0.000   145.938   143.079    66.502    61.379    17.227     1.156    18.734     0.009     0.076     0.009     0.000     0.003     0.009     0.218     0.003     0.002 .00000E+00 0.000E+00 0.000E+00 0.000E+00
BIGSUB  16        0    6.42580E+05   169.062     0.000   155.471   141.705    54.896     1.023     3.626     0.121     3.913     0.481     1.035     0.132     0.001     0.001     0.119     0.157     0.001     0.000 .00000E+00 0.000E+00 0.000E+00 0.000E+00
BIGSUB  17        0    6.10127E+05   263.900     0.000   131.815   129.206    66.914   102.033    38.466    60.790   100.963     0.557     0.396     0.056     0.001     0.008     0.046     0.479     0.006     0.128 .00000E+00 0.000E+00 0.000E+00 0.000E+00
BIGSUB  18        0    6.19915E+04   182.612     0.000   142.493   134.895   155.912    44.385     6.086    12.257    19.203     0.192     0.493     0.061     0.000     0.001     0.068     0.495     0.006     0.027 .00000E+00 0.000E+00 0.000E+00 0.000E+00
BIGSUB  19        0    6.25128E+05   543.072     0.000   147.236   126.734    63.296   176.421   197.081    80.459   279.240     5.721    11.959     1.540     0.019     0.046     1.404     0.166     0.002     0.246 .00000E+00 0.000E+00 0.000E+00 0.000E+00
BIGSUB  20        0    6.16808E+05   467.065     0.000   129.487   125.426    69.507   206.826    79.725    58.961   140.262     2.405     2.787     0.416     0.004     0.019     0.316     0.474     0.005     0.122 .00000E+00 0.000E+00 0.000E+00 0.000E+00
BIGSUB  21        0    6.11487E+05   541.024     0.000   129.973   117.365    65.353   184.482   180.951    62.788   245.422     5.979     2.983     0.432     0.010     0.037     0.348     0.476     0.005     0.134 .00000E+00 0.000E+00 0.000E+00 0.000E+00
BIGSUB  22        0    6.55831E+05   448.846     0.000   135.799   118.672    63.456   152.436   173.051    21.206   195.013    15.513    13.396     1.699     0.026     0.036     1.585     0.284     0.006     0.067 .00000E+00 0.000E+00 0.000E+00 0.000E+00
BIGSUB  23        0    6.19942E+05   294.899     0.000   137.039   130.277    73.655   114.713    42.462    18.253    61.362     0.352     1.300     0.165     0.002     0.010     0.179     0.211     0.004     0.048 .00000E+00 0.000E+00 0.000E+00 0.000E+00
BIGSUB  24        0    6.45060E+04   344.790     0.000   140.522   132.678    68.581   141.416    70.769    62.095   134.170     0.787     2.564     0.316     0.002     0.013     0.302     0.095     0.002     0.184 .00000E+00 0.000E+00 0.000E+00 0.000E+00
BIGSUB  25        0    6.43253E+03   402.354     0.000   140.356   133.689    68.245   163.871   105.278    69.003   175.736     1.167     1.609     0.197     0.001     0.020     0.192     0.111     0.002     0.212 .00000E+00 0.000E+00 0.000E+00 0.000E+00
BIGSUB  26        0    6.49283E+05   279.225     0.000   149.217   128.086   161.741   105.543    43.244    38.795    82.880     0.278     1.936     0.240     0.010     0.015     0.261     0.054     0.001     0.109 .00000E+00 0.000E+00 0.000E+00 0.000E+00
BIGSUB  27        0    6.16997E+05   248.182     0.000   147.424   135.151   165.547    79.984    21.458    11.626    33.472     0.115     0.755     0.095     0.004     0.009     0.101     0.030     0.000     0.023 .00000E+00 0.000E+00 0.000E+00 0.000E+00
BIGSUB  28        0    6.53340E+05   231.211     0.000   146.815   124.408   161.421    76.569    34.826    36.696    72.330     0.212     1.668     0.206     0.011     0.009     0.226     0.027     0.000     0.097 .00000E+00 0.000E+00 0.000E+00 0.000E+00
BIGSUB  29        0    6.39852E+02   394.314     0.000   140.537   134.471    67.671   140.408   119.531    58.494   179.301     2.602     4.796     0.587     0.001     0.018     0.543     0.123     0.002     0.169 .00000E+00 0.000E+00 0.000E+00 0.000E+00
BIGSUB  30        0    6.65447E+02   402.354     0.000   140.278   135.052    68.215   165.284   104.167    68.869   174.505     0.021     0.238     0.029     0.001     0.021     0.028     0.130     0.002     0.211 .00000E+00 0.000E+00 0.000E+00 0.000E+00
BIGSUB  31        0    6.12400E+05  1077.922     0.000   121.391   116.548    75.193   383.789   428.599   162.744   594.789     5.665     5.509     0.730     0.008     0.081     0.656     0.166     0.001     0.281 .00000E+00 0.000E+00 0.000E+00 0.000E+00
BIGSUB  32        0    6.42344E+04   183.064     0.000   151.163   139.382   154.977    15.398     4.707     1.194     5.943     0.025     0.118     0.015     0.002     0.002     0.020     0.007     0.000     0.002 .00000E+00 0.000E+00 0.000E+00 0.000E+00
BIGSUB  33        0    6.25154E+04   206.943     0.000   153.882   143.191   155.803    15.285     1.147     0.627     1.826     0.023     0.107     0.013     0.000     0.000     0.015     0.034     0.000     0.002 .00000E+00 0.000E+00 0.000E+00 0.000E+00
BIGSUB  34        0    6.38658E+02   311.698     0.000   146.579   144.203    69.710   129.452    30.301    28.995    59.934     0.002     0.015     0.002     0.000     0.007     0.002     0.010     0.000     0.095 .00000E+00 0.000E+00 0.000E+00 0.000E+00
BIGSUB  35        0    6.28750E+05   182.413     0.000   148.958   136.955    51.126     0.840     1.130     0.022     1.259     0.271     0.649     0.080     0.001     0.000     0.076     0.104     0.001     0.000 .00000E+00 0.000E+00 0.000E+00 0.000E+00
BIGSUB  36        0    6.18909E+05   229.800     0.000   149.807   137.666    69.238    25.181    14.115     0.402    14.662     0.792     3.357     0.429     0.008     0.004     0.377     0.112     0.002     0.001 .00000E+00 0.000E+00 0.000E+00 0.000E+00
BIGSUB  37        0    6.30714E+05   128.666     0.000   164.391   135.548    24.963     1.309     5.145     0.044     5.232     0.143     1.127     0.141     0.009     0.001     0.129     0.023     0.000     0.000 .00000E+00 0.000E+00 0.000E+00 0.000E+00
BIGSUB  38        0    6.41997E+03   234.120     0.000   154.115   113.728    21.972   100.383    14.780    62.310    78.544     0.047     0.229     0.028     0.001     0.003     0.032     0.018     0.000     0.171 .00000E+00 0.000E+00 0.000E+00 0.000E+00
BIGSUB  39        0    6.83400E+01   311.698     0.000   146.540   144.165    69.712   129.477    30.120    29.002    59.763     0.001     0.013     0.002     0.000     0.006     0.002     0.013     0.000     0.095 .00000E+00 0.000E+00 0.000E+00 0.000E+00
BIGSUB  40        0    6.16618E+05   196.524     0.000   154.628   136.627    67.885    43.016     8.667     3.615    12.536     0.042     0.307     0.038     0.001     0.002     0.036     0.008     0.000     0.007 .00000E+00 0.000E+00 0.000E+00 0.000E+00
BIGSUB  41        0    6.62762E+04   224.419     0.000   153.317   147.949   126.869     3.699     4.987     0.058     5.060     0.188     0.960     0.118     0.001     0.000     0.121     0.007     0.000     0.000 .00000E+00 0.000E+00 0.000E+00 0.000E+00
BIGSUB  42        0    6.35837E+04   237.317     0.000   149.381   130.442   107.747    79.105    15.429    14.215    30.020     0.118     0.511     0.063     0.002     0.003     0.118     0.015     0.000     0.039 .00000E+00 0.000E+00 0.000E+00 0.000E+00
BIGSUB  43        0    6.60762E+05   276.909     0.000   151.991   140.013   156.506   106.706    23.396    45.143    69.553     0.205     1.184     0.147     0.002     0.005     0.167     0.089     0.001     0.134 .00000E+00 0.000E+00 0.000E+00 0.000E+00
BIGSUB  44        0    6.21892E+05   221.606     0.000   157.586   148.717   164.603     4.169     4.630     0.704     5.367     0.092     0.532     0.065     0.001     0.001     0.069     0.007     0.000     0.002 .00000E+00 0.000E+00 0.000E+00 0.000E+00
BIGSUB  45        0    6.50840E+04   153.427     0.000   148.499   121.120   128.871    16.624     4.773     2.220     7.102     0.035     0.258     0.032     0.002     0.001     0.036     0.014     0.000     0.005 .00000E+00 0.000E+00 0.000E+00 0.000E+00
BIGSUB  46        0    6.37870E+04   158.496     0.000   146.619    69.911    12.637    73.491    16.185    49.679    67.054     0.094     1.142     0.140     0.066     0.004     0.138     0.005     0.000     0.135 .00000E+00 0.000E+00 0.000E+00 0.000E+00
BIGSUB  47        0    6.17106E+05   185.927     0.000   140.844    67.009    15.483    88.464    26.622    58.540    86.566     0.190     2.050     0.252     0.339     0.011     0.245     0.007     0.000     0.047 .00000E+00 0.000E+00 0.000E+00 0.000E+00
BIGSUB   1        0    7.17181E+05   220.314     0.000    80.943    61.259    61.330   117.423    35.782    51.704    89.234    14.337     6.061     0.742     0.007     0.002     0.936     0.760     0.016     0.153 .00000E+00 0.000E+00 0.000E+00 0.000E+00
BIGSUB   2        0    7.37268E+05    80.914     0.000    90.771    65.422    56.087     3.354     1.944     0.000     2.009     0.667     0.608     0.075     0.006     0.000     0.156     0.064     0.001     0.000 .00000E+00 0.000E+00 0.000E+00 0.000E+00
BIGSUB   3        0    7.26352E+05   197.432     0.000    81.365    60.895    61.386    91.901    30.618     7.297    42.813    81.977     1.846     0.226     0.021     0.001     0.368     4.735     0.092     0.015 .00000E+00 0.000E+00 0.000E+00 0.000E+00
BIGSUB   4        0    7.28179E+04   184.320     0.000    87.947    87.785   178.369    72.863    47.320    64.294   119.553     5.462     0.089     0.011     0.000     0.004     0.022     6.432     0.071     0.138 .00000E+00 0.000E+00 0.000E+00 0.000E+00
BIGSUB   5        0    7.31473E+04   267.477     0.000    90.992    90.887   176.342   101.627    38.582     2.229    42.839    10.577     0.757     0.093     0.000     0.005     0.186     1.947     0.028     0.005 .00000E+00 0.000E+00 0.000E+00 0.000E+00
BIGSUB   6        0    7.21466E+05   326.555     0.000    96.784    95.028    80.438   157.280    32.832    36.926    70.877     2.024     2.760     0.338     0.000     0.004     0.461     0.441     0.005     0.065 .00000E+00 0.000E+00 0.000E+00 0.000E+00
BIGSUB   7        0    7.31060E+05   242.100     0.000   111.320   104.734    26.970   116.967    15.806    44.866    62.765     0.478     1.807     0.242     0.001     0.003     0.261     1.066     0.006     0.043 .00000E+00 0.000E+00 0.000E+00 0.000E+00
BIGSUB   8        0    7.46786E+04   334.256     0.000   114.682   113.815    67.210   152.005    48.874    53.880   104.339     0.951     2.355     0.308     0.001     0.010     0.257     0.437     0.004     0.086 .00000E+00 0.000E+00 0.000E+00 0.000E+00
BIGSUB   9        0    7.19100E+05   374.312     0.000   121.755   119.835    67.183   168.936    53.190    35.612    89.963     1.033     3.267     0.446     0.003     0.015     0.360     0.411     0.005     0.078 .00000E+00 0.000E+00 0.000E+00 0.000E+00
BIGSUB  10        0    7.15249E+05   366.663     0.000   100.511    99.183    70.094   203.062    61.440    75.657   139.125     1.816     3.120     0.409     0.002     0.013     0.342     0.573     0.006     0.162 .00000E+00 0.000E+00 0.000E+00 0.000E+00
BIGSUB  11        0    7.13782E+05   363.919     0.000   120.107   118.878    70.988   169.607    48.029    51.812   101.310     1.056     3.162     0.403     0.001     0.009     0.349     0.437     0.006     0.129 .00000E+00 0.000E+00 0.000E+00 0.000E+00
BIGSUB  12        0    7.23156E+05   309.103     0.000   120.095   114.172    68.248   144.796    42.987    49.664    94.030     1.164     4.387     0.564     0.012     0.011     0.496     0.316     0.005     0.103 .00000E+00 0.000E+00 0.000E+00 0.000E+00
BIGSUB  13        0    7.11181E+05   441.521     0.000   105.607   105.208    75.799   196.962    68.793    71.748   142.588     1.368     1.111     0.148     0.001     0.015     0.125     0.534     0.006     0.141 .00000E+00 0.000E+00 0.000E+00 0.000E+00
BIGSUB  14        0    7.68337E+04   335.529     0.000   116.523   115.686    69.349   115.488    34.090     2.834    37.345     1.086     3.167     0.403     0.001     0.007     0.350     0.269     0.003     0.005 .00000E+00 0.000E+00 0.000E+00 0.000E+00
BIGSUB  15        0    7.64465E+02   491.533     0.000   127.320   127.320    68.937   196.926   161.729    40.354   203.337     0.152     1.286     0.157     0.001     0.034     0.150     0.440     0.006     0.100 .00000E+00 0.000E+00 0.000E+00 0.000E+00
BIGSUB  16        0    7.42580E+05   338.409     0.000   132.148   131.093    71.299   104.649    38.623     1.655    40.707     1.539     2.374     0.312     0.001     0.009     0.261     0.303     0.003     0.003 .00000E+00 0.000E+00 0.000E+00 0.000E+00
BIGSUB  17        0    7.10127E+05   507.727     0.000   114.056   113.405    69.279   216.869    80.221    96.703   179.979     1.374     0.916     0.139     0.001     0.018     0.111     0.688     0.005     0.130 .00000E+00 0.000E+00 0.000E+00 0.000E+00
BIGSUB  18        0    7.19915E+04   294.099     0.000   121.782   119.433   152.407   141.870    20.765    48.723    71.253     0.325     0.879     0.109     0.000     0.004     0.112     0.707     0.007     0.109 .00000E+00 0.000E+00 0.000E+00 0.000E+00
BIGSUB  19        0    7.25128E+05   521.448     0.000   131.033   124.527    74.457   221.349   165.968   134.421   303.837     1.841     3.889     0.514     0.007     0.033     0.450     0.244     0.002     0.216 .00000E+00 0.000E+00 0.000E+00 0.000E+00
BIGSUB  20        0    7.16808E+05   619.725     0.000   112.051   110.268    74.044   297.928   165.044   147.191   316.217     1.935     1.940     0.310     0.004     0.037     0.230     0.861     0.005     0.206 .00000E+00 0.000E+00 0.000E+00 0.000E+00
BIGSUB  21        0    7.11487E+05   435.707     0.000   114.678   112.907    68.692   220.410   141.987   123.217   268.750     1.308     0.952     0.137     0.003     0.028     0.114     0.743     0.005     0.162 .00000E+00 0.000E+00 0.000E+00 0.000E+00
BIGSUB  22        0    7.55831E+05   402.892     0.000   117.505   111.655    71.173   173.039   108.477    83.922   194.628     4.409     3.091     0.406     0.005     0.021     0.365     0.491     0.007     0.221 .00000E+00 0.000E+00 0.000E+00 0.000E+00
BIGSUB  23        0    7.19942E+05   496.893     0.000   113.717   112.805    74.597   233.355   109.366    85.574   197.057     0.333     1.317     0.172     0.002     0.024     0.173     0.418     0.005     0.219 .00000E+00 0.000E+00 0.000E+00 0.000E+00
BIGSUB  24        0    7.45060E+04   529.820     0.000   116.236   115.310    72.159   264.706   114.963   123.610   241.523     0.587     1.721     0.213     0.001     0.020     0.193     0.159     0.001     0.215 .00000E+00 0.000E+00 0.000E+00 0.000E+00
BIGSUB  25        0    7.43253E+03   633.307     0.000   116.372   116.003    72.604   308.672   182.687   141.678   327.723     0.423     0.706     0.086     0.001     0.035     0.080     0.192     0.002     0.247 .00000E+00 0.000E+00 0.000E+00 0.000E+00
BIGSUB  26        0    7.49283E+05   258.707     0.000   137.171   128.583   165.862    98.081    34.202    72.976   108.980     0.080     0.753     0.094     0.003     0.010     0.098     0.068     0.001     0.141 .00000E+00 0.000E+00 0.000E+00 0.000E+00
BIGSUB  27        0    7.16997E+05   268.422     0.000   129.036   122.788   167.158   121.655    26.191    49.728    77.054     0.051     0.421     0.054     0.002     0.009     0.054     0.043     0.000     0.102 .00000E+00 0.000E+00 0.000E+00 0.000E+00
[...]
BIGSUB  17        0 2009.10127E+05367341.438     0.000205591.859114612.969  6071.605112514.219139533.781115299.359381435.875     7.562  2411.478   686.067    22.130    32.937   347.988  7073.324     0.982    13.231 .00000E+00 0.000E+00 0.000E+00 0.000E+00
BIGSUB  18        0 2009.19915E+04313528.562     0.000227636.609126427.469 15938.626********** 81451.602********************     3.242  1510.680   444.744    11.805    20.005   332.046224679.641     0.733    45.930 .00000E+00 0.000E+00 0.000E+00 0.000E+00
BIGSUB  19        0 2009.25128E+05528958.375     0.000245519.656129557.258  6056.278**********252946.594********************    16.029  3105.774   696.072    33.418    45.248   478.218 24190.867     0.500    60.929 .00000E+00 0.000E+00 0.000E+00 0.000E+00
BIGSUB  20        0 2009.16808E+05517244.250     0.000238010.250121087.695  7130.452182445.656246639.469172667.516429905.469     8.696  3172.229   978.531    25.157    48.899   475.884  1227.289     0.949    17.110 .00000E+00 0.000E+00 0.000E+00 0.000E+00
BIGSUB  21        0 2009.11487E+05508271.781     0.000254470.016121899.703  6379.311**********264834.344********************    14.521  3370.070  1053.918    42.533    54.438   505.465194215.047     1.026    57.790 .00000E+00 0.000E+00 0.000E+00 0.000E+00
BIGSUB  22        0 2009.55831E+05556644.312     0.000282592.375132485.781  6526.378**********306686.000********************    61.254  4321.462  1242.823    43.763    53.846   612.398308497.469     1.081    75.969 .00000E+00 0.000E+00 0.000E+00 0.000E+00
BIGSUB  23        0 2009.19942E+05613053.750     0.000274473.125162220.938 18941.873166842.094285781.125155627.578450473.531     3.234  3073.631   823.826     9.756    61.056   722.333   531.405     0.351    18.180 .00000E+00 0.000E+00 0.000E+00 0.000E+00
BIGSUB  24        0 2009.45060E+04739619.438     0.000298521.219156069.797  9083.142**********387083.688********************     6.647  3491.117   855.159    68.145    73.858   664.963 76649.336     0.369    77.928 .00000E+00 0.000E+00 0.000E+00 0.000E+00
BIGSUB  25        0 2009.43253E+03859946.938     0.000309699.562158207.125  8135.004**********483104.188********************     4.611  2720.383   599.974    73.581   121.099   469.227102296.195     0.505   112.783 .00000E+00 0.000E+00 0.000E+00 0.000E+00
BIGSUB  26        0 2009.49283E+05553297.562     0.000333082.562198406.422 26883.594456940.250174924.453429354.125626315.188     1.669  1962.045   393.687    11.062    43.666   343.884   347.314     0.110    24.487 .00000E+00 0.000E+00 0.000E+00 0.000E+00
BIGSUB  27        0 2009.16997E+05623021.062     0.000345218.656201298.422 28439.711**********231377.500********************     1.989  2786.791   588.844     9.835    61.076   537.919  3375.509     0.072    38.069 .00000E+00 0.000E+00 0.000E+00 0.000E+00
BIGSUB  28        0 2009.53340E+05498434.625     0.000362117.844204203.953 29893.152**********157672.859********************     1.240  1776.351   333.660    17.447    45.491   301.453  3364.188     0.062    34.685 .00000E+00 0.000E+00 0.000E+00 0.000E+00
BIGSUB  29        0 2009.39852E+02981945.875     0.000364966.500177347.719  8548.631**********549119.625********************    33.534  1009.523   266.849    63.062   173.554   101.495153668.266     0.571   136.563 .00000E+00 0.000E+00 0.000E+00 0.000E+00
BIGSUB  30        0 2009.65447E+02**********     0.000371797.688189841.562  9752.343**********579707.000********************     0.384   119.365    22.155    98.930   181.798    22.369153152.906     0.826   137.110 .00000E+00 0.000E+00 0.000E+00 0.000E+00
BIGSUB  31        0 2009.12400E+05**********     0.000366048.469204033.594 12619.725**********944618.438********************    13.377  5101.062  1356.316    53.827   132.008   680.360 71303.445     0.480   126.160 .00000E+00 0.000E+00 0.000E+00 0.000E+00
BIGSUB  32        0 2009.42344E+04722687.562     0.000438855.531248231.047 31071.207**********311805.688********************     0.603  2547.752   604.307    29.385    77.820   628.242 18464.148     0.055    65.173 .00000E+00 0.000E+00 0.000E+00 0.000E+00
BIGSUB  33        0 2009.25154E+04821794.812     0.000458005.531259810.578 32542.717**********329355.312********************     0.547  4285.704   916.510    48.653    78.497   903.252 46495.941     0.167    93.973 .00000E+00 0.000E+00 0.000E+00 0.000E+00
BIGSUB  34        0 2009.38658E+02817089.500     0.000463285.438228820.672 12527.696**********353640.031********************     0.041    13.614     1.689   101.468   119.295     1.201 25676.996     0.106   160.391 .00000E+00 0.000E+00 0.000E+00 0.000E+00
BIGSUB  35        0 2009.28750E+05506283.938     0.000476468.656203786.562 10026.146**********180569.266********************     2.363  5183.950  1245.654    51.979    41.385   833.186707282.812     1.617   129.202 .00000E+00 0.000E+00 0.000E+00 0.000E+00
BIGSUB  36        0 2009.18909E+05582564.375     0.000489309.031227545.719 10898.800**********207220.969********************     7.456  5330.968  1310.550    47.545    48.583   934.983443279.875     1.489   121.964 .00000E+00 0.000E+00 0.000E+00 0.000E+00
BIGSUB  37        0 2009.30714E+05478548.344     0.000517729.625241023.250 15403.356**********152733.344********************     2.729  4361.959   939.384    97.111    44.636   814.728164536.828     0.543   115.079 .00000E+00 0.000E+00 0.000E+00 0.000E+00
BIGSUB  38        0 2009.41997E+03964599.875     0.000522604.125279776.125 28707.596**********399068.594********************     0.698  3212.543   776.003    47.839   112.137   703.412 55177.078     0.206   149.591 .00000E+00 0.000E+00 0.000E+00 0.000E+00
BIGSUB  39        0 2009.83400E+01937249.750     0.000531506.688262463.562 14366.804**********405643.438********************     0.034    13.780     1.709   116.365   136.843     1.216 32721.596     0.170   183.661 .00000E+00 0.000E+00 0.000E+00 0.000E+00
BIGSUB  40        0 2009.16618E+05950915.188     0.000558184.000265078.188 13226.030**********457726.219********************     0.588  6839.964  1355.539    84.965   103.314  1143.850 47271.570     0.171   170.243 .00000E+00 0.000E+00 0.000E+00 0.000E+00
BIGSUB  41        0 2009.62762E+04736792.938     0.000600551.250351505.156 47835.938**********206437.406********************     1.731  3684.417   758.539    39.643    49.238   678.601 37497.523     0.187   109.137 .00000E+00 0.000E+00 0.000E+00 0.000E+00
BIGSUB  42        0 2009.35837E+04810859.188     0.000581186.750334714.812 30044.691**********174562.891********************     0.951  1151.348   307.170    10.031    46.254   351.647 37539.660     0.133   104.233 .00000E+00 0.000E+00 0.000E+00 0.000E+00
BIGSUB  43        0 2009.60762E+05**********     0.000567021.125356381.812 46788.555**********316288.469********************     1.728  3872.155   840.161    13.675    70.743   759.423  4042.667     0.333    68.689 .00000E+00 0.000E+00 0.000E+00 0.000E+00
BIGSUB  44        0 2009.21892E+05869887.312     0.000605259.250360864.031 51636.684**********302094.344********************     0.916  4626.434   927.386    42.015    72.494   859.812 14641.681     0.146    96.445 .00000E+00 0.000E+00 0.000E+00 0.000E+00
BIGSUB  45        0 2009.50840E+04843705.250     0.000585917.000353763.719 53344.918**********244446.344********************     1.255  2928.594   601.529    39.555    70.742   539.472 16646.965     0.117    95.406 .00000E+00 0.000E+00 0.000E+00 0.000E+00
BIGSUB  46        0 2009.37870E+04798190.062     0.000613940.312252628.438  3478.468**********233075.375********************     1.253  2779.091   525.122   206.592    75.219   411.442 28813.941     0.062   259.849 .00000E+00 0.000E+00 0.000E+00 0.000E+00
BIGSUB  47        0 2009.17106E+05806055.188     0.000623662.938254398.984  3602.804**********229363.547********************     1.141  2877.657   528.139   192.319    71.337   423.040 48337.824     0.064   154.174 .00000E+00 0.000E+00 0.000E+00 0.000E+00
BIGSUB   1        0 22.0.17181E+05  7688.774  3101.379  3912.087  2272.401   458.336  2239.174  3144.512  2049.140  5329.893   134.763   147.321    18.107     0.205     0.089    22.102    24.572     0.028     0.214 .00000E+00 0.000E+00 0.000E+00 0.000E+00
BIGSUB   2        0 22.0.37268E+05  6413.567  2211.589  9549.575  4360.500   788.742   466.892  1590.125   286.693  1908.509    14.655   155.157    19.211     1.160     0.087    39.169     8.376     0.040     0.042 .00000E+00 0.000E+00 0.000E+00 0.000E+00
BIGSUB   3        0 22.0.26352E+05 15544.220  4539.319 13250.952  7535.900  1272.961  3898.021  3825.921  3439.101  7751.852   280.058   618.668    75.899     1.440     0.101    64.803   291.435     0.559     0.672 .00000E+00 0.000E+00 0.000E+00 0.000E+00
BIGSUB   4        0 22.0.28179E+04 50623.676  8104.090 24884.344 20736.652  4981.158 12647.493 16426.695 11541.980 29461.637    56.932   348.864    50.450     1.762     0.413    84.799   859.549     0.582     0.463 .00000E+00 0.000E+00 0.000E+00 0.000E+00
BIGSUB   5        0 22.0.31473E+04 49295.621  6225.851 33083.641 25420.994  6051.103  9484.246 13893.438  8363.751 23268.754    38.168   405.671    63.153     6.555     0.819   103.145   539.724     0.601     0.323 .00000E+00 0.000E+00 0.000E+00 0.000E+00
BIGSUB   6        0 22.0.21466E+05 76640.281   708.348 47328.406 29606.445  2558.954 21910.490 24949.543 19883.646 46139.094     7.365   562.906   145.519     4.154     6.825   200.255   210.417     0.162     0.514 .00000E+00 0.000E+00 0.000E+00 0.000E+00
BIGSUB   7        0 22.0.31060E+05106516.297     0.000 69317.531 33743.516  1410.863********** 31464.664********************     6.012   764.025   245.399     3.941    22.424   235.863126523.930     0.392     5.655 .00000E+00 0.000E+00 0.000E+00 0.000E+00
BIGSUB   8        0 22.0.46786E+04133620.359     0.000 83779.445 46905.551  4218.933********** 50162.598********************     7.951  1173.995   301.878    12.873    41.423   245.920 36428.316     0.398    11.604 .00000E+00 0.000E+00 0.000E+00 0.000E+00
BIGSUB   9        0 22.0.19100E+05133219.109     0.000 99538.078 51976.973  4201.047********** 48761.500********************     6.105  1452.948   388.094    13.443    38.446   285.366 89563.336     0.440    17.454 .00000E+00 0.000E+00 0.000E+00 0.000E+00
BIGSUB  10        0 22.0.15249E+05167902.906     0.000101151.445 52382.988  4640.595760725.938 64357.121720680.000828703.000    13.465  1617.051   466.698    15.150    49.725   326.629  5632.929     0.421     6.367 .00000E+00 0.000E+00 0.000E+00 0.000E+00
BIGSUB  11        0 22.0.13782E+05169488.844     0.000131854.984 63898.098  4069.800********** 64313.426********************     7.375  1636.947   437.638    17.569    18.012   328.808162073.203     0.521    29.840 .00000E+00 0.000E+00 0.000E+00 0.000E+00
BIGSUB  12        0 22.0.23156E+05187290.453     0.000146071.203 67413.398  4319.163********** 69300.281********************    12.198  1997.677   451.109    21.955    16.252   361.126111396.320     0.538    40.602 .00000E+00 0.000E+00 0.000E+00 0.000E+00
BIGSUB  13        0 22.0.11181E+05233225.391     0.000145118.219 75307.867  6670.316********** 94399.719********************     6.914  1969.175   587.317    20.324    48.924   370.045151529.281     0.651    32.169 .00000E+00 0.000E+00 0.000E+00 0.000E+00
BIGSUB  14        0 22.0.68337E+04187203.219     0.000161439.406 80665.945  5596.368********** 67079.289********************     6.081  2112.853   552.614    23.803    22.558   415.943197859.891     0.754    33.193 .00000E+00 0.000E+00 0.000E+00 0.000E+00
BIGSUB  15        0 22.0.64465E+02227796.984     0.000180568.859 93591.695  5674.656********** 79695.391********************     0.360   529.783    70.850    26.385    37.989    69.464213678.891     0.953    41.384 .00000E+00 0.000E+00 0.000E+00 0.000E+00
BIGSUB  16        0 22.0.42580E+05201970.484     0.000194916.391 95902.203  5843.521********** 69451.844********************     6.874  2482.314   683.894    24.817    26.973   487.313256232.484     0.850    32.608 .00000E+00 0.000E+00 0.000E+00 0.000E+00
BIGSUB  17        0 22.0.10127E+05345371.562     0.000195930.891106264.070  6071.605**********137427.891********************     7.307  2581.186   762.499    23.943    38.214   469.913143881.219     1.010    43.357 .00000E+00 0.000E+00 0.000E+00 0.000E+00
BIGSUB  18        0 22.0.19915E+04319797.844     0.000215696.266120088.578 15938.626**********100883.898********************     4.904  2009.812   563.349     8.814    24.049   475.704169143.109     0.753    38.695 .00000E+00 0.000E+00 0.000E+00 0.000E+00
BIGSUB  19        0 22.0.25128E+05513688.281     0.000232161.266119744.508  6056.278**********257658.844********************    18.056  3342.375   736.136    40.177    45.490   546.460 55019.703     0.515    68.692 .00000E+00 0.000E+00 0.000E+00 0.000E+00
BIGSUB  20        0 22.0.16808E+05523218.469     0.000226858.312116692.477  7130.452484196.531261727.484455470.625744643.062     9.975  3388.887  1065.814    29.170    51.247   592.238  3251.704     0.978    21.921 .00000E+00 0.000E+00 0.000E+00 0.000E+00
BIGSUB  21        0 22.0.11487E+05450873.031     0.000242637.141113066.617  6379.311**********232128.703********************    13.331  3577.103  1025.517    48.953    49.237   647.892275148.969     1.030    60.248 .00000E+00 0.000E+00 0.000E+00 0.000E+00
BIGSUB  22        0 22.0.55831E+05412021.188     0.000269293.469118207.852  6526.378**********197464.859********************    38.388  3883.649  1047.813    43.248    36.861   648.082352490.781     1.123    82.565 .00000E+00 0.000E+00 0.000E+00 0.000E+00
BIGSUB  23        0 22.0.19942E+05513231.031     0.000259429.750151778.016 18941.873192555.156204344.047177756.250392286.500     2.647  2646.415   687.398    11.038    48.069   604.347   569.757     0.373    20.285 .00000E+00 0.000E+00 0.000E+00 0.000E+00
BIGSUB  24        0 22.0.45060E+04623288.000     0.000282647.031145768.719  9083.142**********294886.812********************     5.487  3310.262   777.902    63.294    59.681   633.883 76428.359     0.396    73.170 .00000E+00 0.000E+00 0.000E+00 0.000E+00
BIGSUB  25        0 22.0.43253E+03739795.625     0.000293142.875148671.453  8135.004**********385705.000********************     4.310  2408.898   552.829    76.463   102.317   446.377112057.102     0.531   115.587 .00000E+00 0.000E+00 0.000E+00 0.000E+00
BIGSUB  26        0 22.0.49283E+05518715.031     0.000316704.125185786.359 26883.594373019.906170794.688348054.188537718.000     1.642  2350.808   423.702    13.349    44.883   401.277   289.087     0.116    23.189 .00000E+00 0.000E+00 0.000E+00 0.000E+00
BIGSUB  27        0 22.0.16997E+05539896.312     0.000326623.188193396.297 28439.711**********174381.875********************     1.507  2449.837   476.607    11.375    50.163   461.889  6048.345     0.081    36.546 .00000E+00 0.000E+00 0.000E+00 0.000E+00
BIGSUB  28        0 22.0.53340E+05481121.781     0.000341587.875193233.203 29893.152**********150225.234********************     1.210  2070.363   364.549    19.123    45.008   346.979  1260.370     0.067    27.938 .00000E+00 0.000E+00 0.000E+00 0.000E+00
BIGSUB  29        0 22.0.39852E+02855867.062     0.000344960.781168388.766  8548.631**********453457.469********************    31.239  1009.008   285.671    96.932   148.894   140.745108920.750     0.601   135.100 .00000E+00 0.000E+00 0.000E+00 0.000E+00
BIGSUB  30        0 22.0.65447E+02887724.812     0.000351905.500178399.609  9752.343**********462842.375********************     0.293   423.547    56.099   100.913   157.050    54.233166103.016     0.859   141.618 .00000E+00 0.000E+00 0.000E+00 0.000E+00
BIGSUB  31        0 22.0.12400E+05**********     0.000345866.469194141.984 12619.725**********967057.062********************    15.069  5282.129  1370.292    61.455   135.454   832.105 72398.461     0.517   128.469 .00000E+00 0.000E+00 0.000E+00 0.000E+00
BIGSUB  32        0 22.0.42344E+04632805.438     0.000416395.188232212.234 31071.207**********243498.094********************     0.463  2428.613   523.542    29.428    66.459   583.300 16042.009     0.064    60.136 .00000E+00 0.000E+00 0.000E+00 0.000E+00
BIGSUB  33        0 22.0.25154E+04646084.812     0.000435314.000239652.609 32542.717**********207641.094********************     0.300  3125.954   621.910    23.623    56.786   631.134 42173.906     0.177    94.931 .00000E+00 0.000E+00 0.000E+00 0.000E+00
BIGSUB  34        0 22.0.38658E+02774934.188     0.000439461.469212878.297 12527.696**********336782.531********************     0.043    13.899     1.747    95.857   119.603     1.400 24974.977     0.113   166.285 .00000E+00 0.000E+00 0.000E+00 0.000E+00
BIGSUB  35        0 22.0.28750E+05526431.312     0.000454044.188199546.391 10026.146**********205976.594********************     2.553  5796.253  1440.910    71.069    46.465  1068.649675469.938     1.747   126.292 .00000E+00 0.000E+00 0.000E+00 0.000E+00
BIGSUB  36        0 22.0.18909E+05607734.688     0.000465243.375212766.938 10898.800**********244670.500********************     8.530  5912.687  1402.401    63.371    55.750  1101.232438136.719     1.580   135.246 .00000E+00 0.000E+00 0.000E+00 0.000E+00
BIGSUB  37        0 22.0.30714E+05479929.281     0.000489969.969216866.766 15403.356**********165303.031********************     3.051  5671.210  1145.724    94.545    51.842  1063.505144199.531     0.626   124.114 .00000E+00 0.000E+00 0.000E+00 0.000E+00
BIGSUB  38        0 22.0.41997E+03815623.938     0.000496438.094258379.312 28707.596**********292607.500********************     0.461  2838.356   618.232    47.684    87.031   597.471 51206.637     0.211   156.140 .00000E+00 0.000E+00 0.000E+00 0.000E+00
BIGSUB  39        0 22.0.83400E+01888878.812     0.000504162.625244209.656 14366.804**********386371.781********************     0.035    14.038     1.765   109.893   137.319     1.413 34983.086     0.184   190.609 .00000E+00 0.000E+00 0.000E+00 0.000E+00
BIGSUB  40        0 22.0.16618E+05792361.062     0.000529728.750250362.406 13226.030**********329002.219********************     0.483  6067.692  1109.255    92.390    78.983  1018.902 45911.684     0.184   177.365 .00000E+00 0.000E+00 0.000E+00 0.000E+00
BIGSUB  41        0 22.0.62762E+04801618.188     0.000571115.312325638.750 47835.938**********278847.969********************     2.790  5467.032  1073.987    47.356    67.154  1027.231 32187.268     0.213   101.330 .00000E+00 0.000E+00 0.000E+00 0.000E+00
BIGSUB  42        0 22.0.35837E+04863091.250     0.000551320.500310965.781 30044.691**********236561.516********************     1.545  1998.334   469.065    13.953    71.384   620.332 37522.617     0.147   111.655 .00000E+00 0.000E+00 0.000E+00 0.000E+00
BIGSUB  43        0 22.0.60762E+05**********     0.000537776.500340243.531 46788.555906512.938345501.875850782.250**********     1.867  4625.820   948.206    17.265    80.182   920.458  1130.735     0.363    56.604 .00000E+00 0.000E+00 0.000E+00 0.000E+00
BIGSUB  44        0 22.0.21892E+05842649.188     0.000572552.062340825.000 51636.684**********301568.531********************     0.874  5530.891  1030.579    46.382    75.805  1003.782 12508.188     0.163    70.243 .00000E+00 0.000E+00 0.000E+00 0.000E+00
BIGSUB  45        0 22.0.50840E+04802165.062     0.000558313.375331766.969 53344.918**********232616.297********************     1.286  3453.489   645.773    47.537    72.775   628.490 15349.407     0.129    86.043 .00000E+00 0.000E+00 0.000E+00 0.000E+00
BIGSUB  46        0 22.0.37870E+04829230.000     0.000582768.062231779.312  3478.468**********279469.750********************     1.639  4049.168   697.719   217.189    95.705   597.756 27253.844     0.068   284.728 .00000E+00 0.000E+00 0.000E+00 0.000E+00
BIGSUB  47        0 22.0.17106E+05852303.000     0.000593192.062232369.844  3602.804**********287315.375********************     1.704  4009.696   693.862   210.224    97.546   594.639 44472.977     0.071   173.193 .00000E+00 0.000E+00 0.000E+00 0.000E+00
